<?xml version="1.0" encoding="UTF-8"?>

<!-- generated on Mon Feb  1 11:43:20 2021 by Eclipse SUMO duarouter Version 1.8.0
<configuration xmlns:xsi="http://www.w3.org/2001/XMLSchema-instance" xsi:noNamespaceSchemaLocation="http://sumo.dlr.de/xsd/duarouterConfiguration.xsd">

    <input>
        <net-file value="/home/eclipse-sumo/Sumo/2021-02-01-11-43-10/osm.net.xml"/>
        <route-files value="/home/eclipse-sumo/Sumo/2021-02-01-11-43-10/osm.passenger.trips.xml"/>
    </input>

    <output>
        <output-file value="/home/eclipse-sumo/Sumo/2021-02-01-11-43-10/osm.passenger.trips.xml.tmp"/>
        <write-trips value="true"/>
    </output>

    <time>
        <begin value="0"/>
        <end value="3600"/>
    </time>

    <report>
        <no-warnings value="true"/>
        <ignore-errors value="true"/>
        <no-step-log value="true"/>
    </report>

</configuration>
-->

<routes xmlns:xsi="http://www.w3.org/2001/XMLSchema-instance" xsi:noNamespaceSchemaLocation="http://sumo.dlr.de/xsd/routes_file.xsd">
    <vType id="veh_passenger" vClass="passenger"/>
    <trip id="veh0" type="veh_passenger" depart="0.00" departLane="best" departSpeed="max" from="24311283#0" to="24045454#0"/>
    <trip id="veh1" type="veh_passenger" depart="8.63" departLane="best" from="476155826#6" to="-38044599"/>
    <trip id="veh2" type="veh_passenger" depart="17.26" departLane="best" from="26975007#0" to="-123693607#0"/>
    <trip id="veh3" type="veh_passenger" depart="25.88" departLane="best" departSpeed="max" from="140955932#0" to="310324547#0"/>
    <trip id="veh4" type="veh_passenger" depart="34.51" departLane="best" from="-107219573" to="206664505#0"/>
    <trip id="veh5" type="veh_passenger" depart="43.14" departLane="best" departSpeed="max" from="31548939#0" to="311219431#1"/>
    <trip id="veh7" type="veh_passenger" depart="60.39" departLane="best" from="39040260" to="-107173641#0"/>
    <trip id="veh8" type="veh_passenger" depart="69.02" departLane="best" from="39040256" to="38248426#2"/>
    <trip id="veh10" type="veh_passenger" depart="86.28" departLane="best" from="713049151#2" to="25199876#5"/>
    <trip id="veh11" type="veh_passenger" depart="94.90" departLane="best" from="39040260" to="388252037#1"/>
    <trip id="veh12" type="veh_passenger" depart="103.53" departLane="best" from="25205135#1" to="311363249#0"/>
    <trip id="veh13" type="veh_passenger" depart="112.16" departLane="best" from="39408017" to="33176188#1"/>
    <trip id="veh16" type="veh_passenger" depart="138.04" departLane="best" departSpeed="max" from="-30803747" to="24045454#2"/>
    <trip id="veh17" type="veh_passenger" depart="146.67" departLane="best" from="-35438371" to="24524711#0"/>
    <trip id="veh18" type="veh_passenger" depart="155.30" departLane="best" from="311505716" to="25215918"/>
    <trip id="veh19" type="veh_passenger" depart="163.92" departLane="best" from="24304830#0" to="549774490#3"/>
    <trip id="veh20" type="veh_passenger" depart="172.55" departLane="best" departSpeed="max" from="31548939#0" to="32525738#1"/>
    <trip id="veh21" type="veh_passenger" depart="181.18" departLane="best" departSpeed="max" from="-682383211" to="388252037#1"/>
    <trip id="veh22" type="veh_passenger" depart="189.81" departLane="best" from="-60579141#0" to="262798448#0"/>
    <trip id="veh23" type="veh_passenger" depart="198.43" departLane="best" from="776575573#0" to="34067368"/>
    <trip id="veh24" type="veh_passenger" depart="207.06" departLane="best" from="310324549#0" to="38167091#1"/>
    <trip id="veh26" type="veh_passenger" depart="224.32" departLane="best" from="24524709#0" to="24311291#5"/>
    <trip id="veh27" type="veh_passenger" depart="232.94" departLane="best" from="463648732" to="25170885#0"/>
    <trip id="veh29" type="veh_passenger" depart="250.20" departLane="best" from="54377349#0" to="30634892#0"/>
    <trip id="veh30" type="veh_passenger" depart="258.83" departLane="best" from="310467867" to="24311291#0"/>
    <trip id="veh31" type="veh_passenger" depart="267.45" departLane="best" from="310909354#0" to="52115485#1"/>
    <trip id="veh32" type="veh_passenger" depart="276.08" departLane="best" from="89209796#1" to="310324549#0"/>
    <trip id="veh33" type="veh_passenger" depart="284.71" departLane="best" from="-34067363#0" to="-30419148"/>
    <trip id="veh34" type="veh_passenger" depart="293.34" departLane="best" departSpeed="max" from="-38248425#1" to="34066807#0"/>
    <trip id="veh36" type="veh_passenger" depart="310.59" departLane="best" from="-24323392#1" to="263295227"/>
    <trip id="veh37" type="veh_passenger" depart="319.22" departLane="best" from="89209796#1" to="310763127#5"/>
    <trip id="veh38" type="veh_passenger" depart="327.85" departLane="best" from="713397869#1" to="463648755#0"/>
    <trip id="veh39" type="veh_passenger" depart="336.47" departLane="best" departSpeed="max" from="-107173639#2" to="388252033"/>
    <trip id="veh40" type="veh_passenger" depart="345.10" departLane="best" from="32525738#0" to="310909353"/>
    <trip id="veh41" type="veh_passenger" depart="353.73" departLane="best" from="24304830#0" to="34067368"/>
    <trip id="veh42" type="veh_passenger" depart="362.36" departLane="best" from="463648732" to="24311291#1"/>
    <trip id="veh43" type="veh_passenger" depart="370.98" departLane="best" departSpeed="max" from="307440780#0" to="164441125"/>
    <trip id="veh44" type="veh_passenger" depart="379.61" departLane="best" from="524406167#0" to="463648756#0"/>
    <trip id="veh45" type="veh_passenger" depart="388.24" departLane="best" from="24311290#6" to="34067368"/>
    <trip id="veh46" type="veh_passenger" depart="396.87" departLane="best" from="311219431#3" to="107219573"/>
    <trip id="veh47" type="veh_passenger" depart="405.50" departLane="best" from="388185642#1" to="311219427#0"/>
    <trip id="veh48" type="veh_passenger" depart="414.12" departLane="best" from="388253112#5" to="310763127#5"/>
    <trip id="veh49" type="veh_passenger" depart="422.75" departLane="best" from="-107136392#0" to="25170887"/>
    <trip id="veh50" type="veh_passenger" depart="431.38" departLane="best" from="-107173642#0" to="54377356#2"/>
    <trip id="veh51" type="veh_passenger" depart="440.01" departLane="best" from="463648755#0" to="463648715#1"/>
    <trip id="veh52" type="veh_passenger" depart="448.63" departLane="best" from="24311292" to="-311040683"/>
    <trip id="veh53" type="veh_passenger" depart="457.26" departLane="best" from="463648754" to="679251618"/>
    <trip id="veh54" type="veh_passenger" depart="465.89" departLane="best" from="-311219431#2" to="30824100#0"/>
    <trip id="veh56" type="veh_passenger" depart="483.14" departLane="best" from="388248844" to="107136392#1"/>
    <trip id="veh57" type="veh_passenger" depart="491.77" departLane="best" from="30318401" to="311363240"/>
    <trip id="veh59" type="veh_passenger" depart="509.03" departLane="best" from="26975007#1" to="22358125"/>
    <trip id="veh60" type="veh_passenger" depart="517.65" departLane="best" from="120569625#0" to="24650787#0"/>
    <trip id="veh61" type="veh_passenger" depart="526.28" departLane="best" from="89209796#0" to="34067772"/>
    <trip id="veh62" type="veh_passenger" depart="534.91" departLane="best" from="299080624" to="310627385#0"/>
    <trip id="veh63" type="veh_passenger" depart="543.54" departLane="best" departSpeed="max" from="-38248427" to="24045454#1"/>
    <trip id="veh65" type="veh_passenger" depart="560.79" departLane="best" departSpeed="max" from="-30319545" to="34067363#0"/>
    <trip id="veh66" type="veh_passenger" depart="569.42" departLane="best" from="449951479" to="-311219431#4"/>
    <trip id="veh67" type="veh_passenger" depart="578.05" departLane="best" from="206664505#1" to="364967319"/>
    <trip id="veh68" type="veh_passenger" depart="586.67" departLane="best" departSpeed="max" from="140955932#0" to="107136393#2"/>
    <trip id="veh69" type="veh_passenger" depart="595.30" departLane="best" departSpeed="max" from="55693616#0" to="311505714"/>
    <trip id="veh70" type="veh_passenger" depart="603.93" departLane="best" from="30318397" to="419864787#0"/>
    <trip id="veh71" type="veh_passenger" depart="612.56" departLane="best" from="39040260" to="206173031"/>
    <trip id="veh72" type="veh_passenger" depart="621.18" departLane="best" departSpeed="max" from="-34067368" to="30163123#3"/>
    <trip id="veh74" type="veh_passenger" depart="638.44" departLane="best" from="25215919#2" to="25204820#1"/>
    <trip id="veh75" type="veh_passenger" depart="647.07" departLane="best" from="107219573" to="30634571"/>
    <trip id="veh76" type="veh_passenger" depart="655.69" departLane="best" from="26975007#0" to="24524711#1"/>
    <trip id="veh77" type="veh_passenger" depart="664.32" departLane="best" from="22358125" to="54377352#1"/>
    <trip id="veh78" type="veh_passenger" depart="672.95" departLane="best" from="310324547#0" to="-311040547"/>
    <trip id="veh79" type="veh_passenger" depart="681.58" departLane="best" from="89209796#2" to="463648718#0"/>
    <trip id="veh80" type="veh_passenger" depart="690.20" departLane="best" from="713397869#0" to="54377352#4"/>
    <trip id="veh81" type="veh_passenger" depart="698.83" departLane="best" from="421780550" to="123382944"/>
    <trip id="veh82" type="veh_passenger" depart="707.46" departLane="best" from="30634890#5" to="23069767"/>
    <trip id="veh83" type="veh_passenger" depart="716.09" departLane="best" from="25205135#1" to="756248872#3"/>
    <trip id="veh85" type="veh_passenger" depart="733.34" departLane="best" from="713049151#2" to="89209796#0"/>
    <trip id="veh86" type="veh_passenger" depart="741.97" departLane="best" from="310324549#0" to="388251430#0"/>
    <trip id="veh88" type="veh_passenger" depart="759.22" departLane="best" from="713397869#0" to="312814739#1"/>
    <trip id="veh89" type="veh_passenger" depart="767.85" departLane="best" from="30824104#3" to="388255693#5"/>
    <trip id="veh90" type="veh_passenger" depart="776.48" departLane="best" departSpeed="max" from="-164441128" to="31528890"/>
    <trip id="veh91" type="veh_passenger" depart="785.11" departLane="best" departSpeed="max" from="307440780#0" to="463648725"/>
    <trip id="veh92" type="veh_passenger" depart="793.74" departLane="best" from="-549774490#1" to="713049151#3"/>
    <trip id="veh93" type="veh_passenger" depart="802.36" departLane="best" departSpeed="max" from="-30803747" to="164441128"/>
    <trip id="veh95" type="veh_passenger" depart="819.62" departLane="best" from="206664503#3" to="-549774490#1"/>
    <trip id="veh96" type="veh_passenger" depart="828.25" departLane="best" from="476155826#5" to="24311287#1"/>
    <trip id="veh97" type="veh_passenger" depart="836.87" departLane="best" from="26783554#0" to="31528889"/>
    <trip id="veh98" type="veh_passenger" depart="845.50" departLane="best" from="30803505" to="549774490#3"/>
    <trip id="veh99" type="veh_passenger" depart="854.13" departLane="best" departSpeed="max" from="123693605#0" to="388248843#0"/>
    <trip id="veh101" type="veh_passenger" depart="871.38" departLane="best" from="24524709#0" to="388255693#5"/>
    <trip id="veh102" type="veh_passenger" depart="880.01" departLane="best" departSpeed="max" from="-30319545" to="30634891#0"/>
    <trip id="veh103" type="veh_passenger" depart="888.64" departLane="best" from="-30419148" to="23069767"/>
    <trip id="veh105" type="veh_passenger" depart="905.89" departLane="best" from="463648755#1" to="476146596"/>
    <trip id="veh106" type="veh_passenger" depart="914.52" departLane="best" from="25204820#2" to="107219576#3"/>
    <trip id="veh107" type="veh_passenger" depart="923.15" departLane="best" departSpeed="max" from="39408020" to="38248427"/>
    <trip id="veh108" type="veh_passenger" depart="931.78" departLane="best" departSpeed="max" from="31548939#0" to="-107173641#1"/>
    <trip id="veh109" type="veh_passenger" depart="940.40" departLane="best" from="31548939#3" to="55693616#1"/>
    <trip id="veh110" type="veh_passenger" depart="949.03" departLane="best" from="-388252037#1" to="-476146592"/>
    <trip id="veh111" type="veh_passenger" depart="957.66" departLane="best" departSpeed="max" from="-38248425#1" to="311363249#1"/>
    <trip id="veh112" type="veh_passenger" depart="966.29" departLane="best" departSpeed="max" from="24311283#0" to="32525736#3"/>
    <trip id="veh113" type="veh_passenger" depart="974.91" departLane="best" departSpeed="max" from="35438366#0" to="22358115#1"/>
    <trip id="veh114" type="veh_passenger" depart="983.54" departLane="best" from="311505714" to="24311291#1"/>
    <trip id="veh116" type="veh_passenger" depart="1000.80" departLane="best" from="419864788" to="-388184135#1"/>
    <trip id="veh117" type="veh_passenger" depart="1009.42" departLane="best" from="26975007#2" to="24524710"/>
    <trip id="veh118" type="veh_passenger" depart="1018.05" departLane="best" from="-107136393#1" to="39040273#2"/>
    <trip id="veh119" type="veh_passenger" depart="1026.68" departLane="best" from="311505716" to="24311290#8"/>
    <trip id="veh120" type="veh_passenger" depart="1035.31" departLane="best" from="373226713" to="311363249#0"/>
    <trip id="veh121" type="veh_passenger" depart="1043.93" departLane="best" from="29464381#0" to="-107173642#1"/>
    <trip id="veh122" type="veh_passenger" depart="1052.56" departLane="best" from="-30803746" to="476146596"/>
    <trip id="veh123" type="veh_passenger" depart="1061.19" departLane="best" from="52115486#1" to="311219431#2"/>
    <trip id="veh124" type="veh_passenger" depart="1069.82" departLane="best" departSpeed="max" from="39408020" to="312814743#0"/>
    <trip id="veh125" type="veh_passenger" depart="1078.44" departLane="best" from="24311293" to="52115486#0"/>
    <trip id="veh127" type="veh_passenger" depart="1095.70" departLane="best" from="52115483#3" to="22358125"/>
    <trip id="veh128" type="veh_passenger" depart="1104.33" departLane="best" from="388253112#6" to="476155826#2"/>
    <trip id="veh129" type="veh_passenger" depart="1112.95" departLane="best" from="262798442" to="33176188#1"/>
    <trip id="veh130" type="veh_passenger" depart="1121.58" departLane="best" departSpeed="max" from="-524406167#1" to="54377359"/>
    <trip id="veh131" type="veh_passenger" depart="1130.21" departLane="best" from="39040263" to="476146596"/>
    <trip id="veh132" type="veh_passenger" depart="1138.84" departLane="best" from="-107219571#3" to="388253112#6"/>
    <trip id="veh133" type="veh_passenger" depart="1147.46" departLane="best" from="24610187#1" to="549774490#0"/>
    <trip id="veh135" type="veh_passenger" depart="1164.72" departLane="best" from="39040263" to="24311291#4"/>
    <trip id="veh136" type="veh_passenger" depart="1173.35" departLane="best" from="388255693#1" to="-39408015"/>
    <trip id="veh137" type="veh_passenger" depart="1181.97" departLane="best" from="463648725" to="463648754"/>
    <trip id="veh138" type="veh_passenger" depart="1190.60" departLane="best" departSpeed="max" from="140955932#0" to="436794501#1"/>
    <trip id="veh139" type="veh_passenger" depart="1199.23" departLane="best" from="30026025#0" to="24647939#16"/>
    <trip id="veh141" type="veh_passenger" depart="1216.49" departLane="best" from="-107219571#1" to="206173031"/>
    <trip id="veh142" type="veh_passenger" depart="1225.11" departLane="best" from="24524712#2" to="463648755#3"/>
    <trip id="veh143" type="veh_passenger" depart="1233.74" departLane="best" from="713397863#1" to="24524711#1"/>
    <trip id="veh144" type="veh_passenger" depart="1242.37" departLane="best" from="311727446#1" to="295783391"/>
    <trip id="veh145" type="veh_passenger" depart="1251.00" departLane="best" from="55693616#1" to="-476146592"/>
    <trip id="veh146" type="veh_passenger" depart="1259.62" departLane="best" from="713397869#1" to="164441125"/>
    <trip id="veh147" type="veh_passenger" depart="1268.25" departLane="best" departSpeed="max" from="311219431#0" to="310324549#0"/>
    <trip id="veh148" type="veh_passenger" depart="1276.88" departLane="best" from="25215916#0" to="311727446#0"/>
    <trip id="veh149" type="veh_passenger" depart="1285.51" departLane="best" from="-107136392#1" to="54377352#3"/>
    <trip id="veh150" type="veh_passenger" depart="1294.13" departLane="best" from="30824100#5" to="388251430#1"/>
    <trip id="veh151" type="veh_passenger" depart="1302.76" departLane="best" from="374948156" to="364967320"/>
    <trip id="veh152" type="veh_passenger" depart="1311.39" departLane="best" from="25199876#3" to="-311219431#2"/>
    <trip id="veh153" type="veh_passenger" depart="1320.02" departLane="best" from="31548939#3" to="25199766"/>
    <trip id="veh154" type="veh_passenger" depart="1328.64" departLane="best" departSpeed="max" from="24311295" to="463648723#0"/>
    <trip id="veh155" type="veh_passenger" depart="1337.27" departLane="best" from="35438366#1" to="24647939#1"/>
    <trip id="veh156" type="veh_passenger" depart="1345.90" departLane="best" departSpeed="max" from="24311295" to="30025794#1"/>
    <trip id="veh158" type="veh_passenger" depart="1363.15" departLane="best" departSpeed="max" from="-388252033" to="30026021#1"/>
    <trip id="veh159" type="veh_passenger" depart="1371.78" departLane="best" from="60579141#2" to="373226713"/>
    <trip id="veh160" type="veh_passenger" depart="1380.41" departLane="best" from="24311291#0" to="311363239"/>
    <trip id="veh161" type="veh_passenger" depart="1389.04" departLane="best" from="-107136392#0" to="24610184#0"/>
    <trip id="veh163" type="veh_passenger" depart="1406.29" departLane="best" from="30318399#0" to="52115486#3"/>
    <trip id="veh165" type="veh_passenger" depart="1423.55" departLane="best" from="-311219431#1" to="310467867"/>
    <trip id="veh166" type="veh_passenger" depart="1432.17" departLane="best" from="311505709#1" to="25199876#3"/>
    <trip id="veh168" type="veh_passenger" depart="1449.43" departLane="best" from="317958114" to="24045454#1"/>
    <trip id="veh170" type="veh_passenger" depart="1466.68" departLane="best" from="22358115#2" to="30803503"/>
    <trip id="veh171" type="veh_passenger" depart="1475.31" departLane="best" from="421780551#1" to="-34066807#0"/>
    <trip id="veh173" type="veh_passenger" depart="1492.57" departLane="best" departSpeed="max" from="107679659" to="38248426#2"/>
    <trip id="veh175" type="veh_passenger" depart="1509.82" departLane="best" departSpeed="max" from="31548939#0" to="-107173639#1"/>
    <trip id="veh176" type="veh_passenger" depart="1518.45" departLane="best" departSpeed="max" from="-38248425#1" to="30163123#1"/>
    <trip id="veh177" type="veh_passenger" depart="1527.08" departLane="best" from="107136392#1" to="713049151#2"/>
    <trip id="veh178" type="veh_passenger" depart="1535.70" departLane="best" from="30803494" to="-311040547"/>
    <trip id="veh179" type="veh_passenger" depart="1544.33" departLane="best" from="22358125" to="463648723#0"/>
    <trip id="veh181" type="veh_passenger" depart="1561.59" departLane="best" from="31548939#5" to="756248872#4"/>
    <trip id="veh182" type="veh_passenger" depart="1570.21" departLane="best" departSpeed="max" from="311040683" to="682383211"/>
    <trip id="veh183" type="veh_passenger" depart="1578.84" departLane="best" from="476155826#5" to="33176187"/>
    <trip id="veh184" type="veh_passenger" depart="1587.47" departLane="best" from="35438366#1" to="310324547#0"/>
    <trip id="veh185" type="veh_passenger" depart="1596.10" departLane="best" departSpeed="max" from="39408020" to="311363239"/>
    <trip id="veh186" type="veh_passenger" depart="1604.73" departLane="best" from="52115483#2" to="388255693#1"/>
    <trip id="veh187" type="veh_passenger" depart="1613.35" departLane="best" from="30318399#1" to="24311290#6"/>
    <trip id="veh188" type="veh_passenger" depart="1621.98" departLane="best" from="22358125" to="34067368"/>
    <trip id="veh189" type="veh_passenger" depart="1630.61" departLane="best" from="388248844" to="310763127#1"/>
    <trip id="veh190" type="veh_passenger" depart="1639.24" departLane="best" from="311450566" to="24524709#1"/>
    <trip id="veh191" type="veh_passenger" depart="1647.86" departLane="best" departSpeed="max" from="-30803747" to="24609682"/>
    <trip id="veh192" type="veh_passenger" depart="1656.49" departLane="best" departSpeed="max" from="24311283#0" to="25170885#0"/>
    <trip id="veh193" type="veh_passenger" depart="1665.12" departLane="best" from="30824104#1" to="107173639#2"/>
    <trip id="veh194" type="veh_passenger" depart="1673.75" departLane="best" from="206173030" to="38248426#1"/>
    <trip id="veh195" type="veh_passenger" depart="1682.37" departLane="best" from="34067373" to="-311219431#0"/>
    <trip id="veh196" type="veh_passenger" depart="1691.00" departLane="best" from="262798442" to="311219430"/>
    <trip id="veh197" type="veh_passenger" depart="1699.63" departLane="best" from="263295224" to="22358115#2"/>
    <trip id="veh199" type="veh_passenger" depart="1716.88" departLane="best" from="310909354#0" to="38248426#2"/>
    <trip id="veh200" type="veh_passenger" depart="1725.51" departLane="best" from="436794501#1" to="39040263"/>
    <trip id="veh201" type="veh_passenger" depart="1734.14" departLane="best" from="25205135#3" to="-107173639#1"/>
    <trip id="veh203" type="veh_passenger" depart="1751.39" departLane="best" from="26783550" to="388255693#5"/>
    <trip id="veh204" type="veh_passenger" depart="1760.02" departLane="best" departSpeed="max" from="140955932#0" to="23823479#4"/>
    <trip id="veh205" type="veh_passenger" depart="1768.65" departLane="best" from="295783392#0" to="-123693606"/>
    <trip id="veh207" type="veh_passenger" depart="1785.90" departLane="best" from="25215919#3" to="120569625#1"/>
    <trip id="veh208" type="veh_passenger" depart="1794.53" departLane="best" from="30163123#4" to="107136392#1"/>
    <trip id="veh209" type="veh_passenger" depart="1803.16" departLane="best" from="311363250" to="-123693605#1"/>
    <trip id="veh210" type="veh_passenger" depart="1811.79" departLane="best" from="25215917#2" to="311450566"/>
    <trip id="veh211" type="veh_passenger" depart="1820.41" departLane="best" from="-107219576#1" to="34067373"/>
    <trip id="veh212" type="veh_passenger" depart="1829.04" departLane="best" departSpeed="max" from="-164441125" to="262798446#2"/>
    <trip id="veh213" type="veh_passenger" depart="1837.67" departLane="best" from="123693607#0" to="25170888#1"/>
    <trip id="veh214" type="veh_passenger" depart="1846.30" departLane="best" from="388185642#0" to="262798446#2"/>
    <trip id="veh215" type="veh_passenger" depart="1854.92" departLane="best" from="38167091#0" to="463648715#1"/>
    <trip id="veh217" type="veh_passenger" depart="1872.18" departLane="best" from="89209796#2" to="25205137#2"/>
    <trip id="veh220" type="veh_passenger" depart="1898.06" departLane="best" departSpeed="max" from="709193780" to="206664505#0"/>
    <trip id="veh221" type="veh_passenger" depart="1906.69" departLane="best" departSpeed="max" from="-388252033" to="364967319"/>
    <trip id="veh222" type="veh_passenger" depart="1915.32" departLane="best" from="310627385#0" to="23823479#3"/>
    <trip id="veh223" type="veh_passenger" depart="1923.94" departLane="best" from="34067363#0" to="39040263"/>
    <trip id="veh224" type="veh_passenger" depart="1932.57" departLane="best" from="-61323373" to="32525737"/>
    <trip id="veh225" type="veh_passenger" depart="1941.20" departLane="best" departSpeed="max" from="38044599" to="-39408020"/>
    <trip id="veh227" type="veh_passenger" depart="1958.45" departLane="best" departSpeed="max" from="24311295" to="373226713"/>
    <trip id="veh228" type="veh_passenger" depart="1967.08" departLane="best" departSpeed="max" from="35438366#0" to="-34067363#1"/>
    <trip id="veh229" type="veh_passenger" depart="1975.71" departLane="best" from="33504839#1" to="34066807#0"/>
    <trip id="veh230" type="veh_passenger" depart="1984.34" departLane="best" from="421780551#1" to="32525734"/>
    <trip id="veh231" type="veh_passenger" depart="1992.97" departLane="best" departSpeed="max" from="-38248427" to="756248872#1"/>
    <trip id="veh232" type="veh_passenger" depart="2001.59" departLane="best" from="388253112#8" to="25205135#4"/>
    <trip id="veh233" type="veh_passenger" depart="2010.22" departLane="best" from="29464381#0" to="262797319"/>
    <trip id="veh234" type="veh_passenger" depart="2018.85" departLane="best" from="-38248425#0" to="713049151#3"/>
    <trip id="veh235" type="veh_passenger" depart="2027.48" departLane="best" from="311505716" to="463648715#1"/>
    <trip id="veh236" type="veh_passenger" depart="2036.10" departLane="best" from="34067759" to="30271221"/>
    <trip id="veh237" type="veh_passenger" depart="2044.73" departLane="best" from="364967320" to="713397863#0"/>
    <trip id="veh238" type="veh_passenger" depart="2053.36" departLane="best" departSpeed="max" from="39408020" to="-38044599"/>
    <trip id="veh239" type="veh_passenger" depart="2061.99" departLane="best" from="463648755#1" to="24311287#0"/>
    <trip id="veh240" type="veh_passenger" depart="2070.61" departLane="best" from="30163123#3" to="32525739#0"/>
    <trip id="veh241" type="veh_passenger" depart="2079.24" departLane="best" from="25205135#1" to="-123693606"/>
    <trip id="veh242" type="veh_passenger" depart="2087.87" departLane="best" from="421780551#1" to="164441128"/>
    <trip id="veh243" type="veh_passenger" depart="2096.50" departLane="best" from="123693607#0" to="421780552#1"/>
    <trip id="veh245" type="veh_passenger" depart="2113.75" departLane="best" from="34067363#1" to="24524710"/>
    <trip id="veh246" type="veh_passenger" depart="2122.38" departLane="best" from="30634891#0" to="38866931#1"/>
    <trip id="veh247" type="veh_passenger" depart="2131.01" departLane="best" from="30634892#1" to="419864788"/>
    <trip id="veh248" type="veh_passenger" depart="2139.63" departLane="best" from="-34067363#2" to="23823479#5"/>
    <trip id="veh249" type="veh_passenger" depart="2148.26" departLane="best" from="33504839#2" to="24647939#16"/>
    <trip id="veh250" type="veh_passenger" depart="2156.89" departLane="best" from="310909352" to="30803498#1"/>
    <trip id="veh251" type="veh_passenger" depart="2165.52" departLane="best" from="30824100#0" to="30163123#1"/>
    <trip id="veh252" type="veh_passenger" depart="2174.14" departLane="best" departSpeed="max" from="38044599" to="25199766"/>
    <trip id="veh253" type="veh_passenger" depart="2182.77" departLane="best" from="34067364#0" to="24323392#1"/>
    <trip id="veh255" type="veh_passenger" depart="2200.03" departLane="best" from="107173644#0" to="23823479#3"/>
    <trip id="veh256" type="veh_passenger" depart="2208.65" departLane="best" from="30634890#4" to="388252033"/>
    <trip id="veh257" type="veh_passenger" depart="2217.28" departLane="best" from="756248871#0" to="310763127#2"/>
    <trip id="veh259" type="veh_passenger" depart="2234.54" departLane="best" departSpeed="max" from="107679659" to="24045454#2"/>
    <trip id="veh260" type="veh_passenger" depart="2243.16" departLane="best" from="30824100#1" to="24524709#1"/>
    <trip id="veh262" type="veh_passenger" depart="2260.42" departLane="best" from="463648723#2" to="30824100#5"/>
    <trip id="veh263" type="veh_passenger" depart="2269.05" departLane="best" from="463648726" to="311505716"/>
    <trip id="veh264" type="veh_passenger" depart="2277.67" departLane="best" from="30271219" to="30319185"/>
    <trip id="veh265" type="veh_passenger" depart="2286.30" departLane="best" from="107173644#0" to="-311040547"/>
    <trip id="veh266" type="veh_passenger" depart="2294.93" departLane="best" from="60579141#2" to="30803507"/>
    <trip id="veh267" type="veh_passenger" depart="2303.56" departLane="best" from="-30419148" to="34067359#0"/>
    <trip id="veh268" type="veh_passenger" depart="2312.18" departLane="best" from="310627385#0" to="24647939#16"/>
    <trip id="veh269" type="veh_passenger" depart="2320.81" departLane="best" from="89209796#0" to="-549774490#0"/>
    <trip id="veh271" type="veh_passenger" depart="2338.07" departLane="best" from="388255693#4" to="24045454#1"/>
    <trip id="veh272" type="veh_passenger" depart="2346.69" departLane="best" from="30803505" to="30634890#0"/>
    <trip id="veh273" type="veh_passenger" depart="2355.32" departLane="best" from="776575573#0" to="24647939#16"/>
    <trip id="veh274" type="veh_passenger" depart="2363.95" departLane="best" from="373226713" to="682383211"/>
    <trip id="veh275" type="veh_passenger" depart="2372.58" departLane="best" departSpeed="max" from="123693605#0" to="22358125"/>
    <trip id="veh276" type="veh_passenger" depart="2381.21" departLane="best" from="31548939#2" to="107219576#3"/>
    <trip id="veh277" type="veh_passenger" depart="2389.83" departLane="best" departSpeed="max" from="-682383211" to="-34067363#0"/>
    <trip id="veh278" type="veh_passenger" depart="2398.46" departLane="best" from="-107136393#0" to="30634890#0"/>
    <trip id="veh279" type="veh_passenger" depart="2407.09" departLane="best" departSpeed="max" from="311040683" to="24610187#4"/>
    <trip id="veh280" type="veh_passenger" depart="2415.72" departLane="best" from="206173030" to="388184135#0"/>
    <trip id="veh281" type="veh_passenger" depart="2424.34" departLane="best" from="34067364#0" to="30634890#4"/>
    <trip id="veh282" type="veh_passenger" depart="2432.97" departLane="best" from="33176187" to="54377352#2"/>
    <trip id="veh283" type="veh_passenger" depart="2441.60" departLane="best" from="388255693#1" to="33504839#4"/>
    <trip id="veh284" type="veh_passenger" depart="2450.23" departLane="best" from="31548939#2" to="549774490#3"/>
    <trip id="veh287" type="veh_passenger" depart="2476.11" departLane="best" departSpeed="max" from="39408015" to="-32525737"/>
    <trip id="veh288" type="veh_passenger" depart="2484.74" departLane="best" from="-60579146" to="24647939#16"/>