<?xml version="1.0" encoding="UTF-8"?>

<!-- generated on Mon Feb  1 11:43:18 2021 by Eclipse SUMO netconvert Version 1.8.0
<configuration xmlns:xsi="http://www.w3.org/2001/XMLSchema-instance" xsi:noNamespaceSchemaLocation="http://sumo.dlr.de/xsd/netconvertConfiguration.xsd">

    <input>
        <type-files value="/usr/share/sumo/data/typemap/osmNetconvert.typ.xml"/>
        <osm-files value="osm_bbox.osm.xml"/>
    </input>

    <output>
        <output-file value="osm.net.xml"/>
        <output.street-names value="true"/>
        <output.original-names value="true"/>
        <ptstop-output value="osm_stops.add.xml"/>
        <ptline-output value="osm_ptlines.xml"/>
    </output>

    <projection>
        <proj.utm value="true"/>
    </projection>

    <processing>
        <geometry.remove value="true"/>
        <roundabouts.guess value="true"/>
    </processing>

    <tls_building>
        <tls.discard-simple value="true"/>
        <tls.join value="true"/>
        <tls.guess-signals value="true"/>
        <tls.default-type value="actuated"/>
    </tls_building>

    <ramp_guessing>
        <ramps.guess value="true"/>
    </ramp_guessing>

    <junctions>
        <junctions.join value="true"/>
        <junctions.corner-detail value="5"/>
    </junctions>

    <railway>
        <railway.topology.repair value="true"/>
        <railway.topology.repair.stop-turn value="true"/>
    </railway>

    <report>
        <verbose value="true"/>
        <aggregate-warnings value="5"/>
    </report>

</configuration>
-->

<net version="1.6" junctionCornerDetail="5" limitTurnSpeed="5.50" xmlns:xsi="http://www.w3.org/2001/XMLSchema-instance" xsi:noNamespaceSchemaLocation="http://sumo.dlr.de/xsd/net_file.xsd">

    <location netOffset="-724643.72,-4371269.43" convBoundary="0.00,0.00,2146.12,1981.31" origBoundary="-6.388484,39.461386,-6.342307,39.493263" projParameter="+proj=utm +zone=29 +ellps=WGS84 +datum=WGS84 +units=m +no_defs"/>

    <type id="highway.bridleway" priority="1" numLanes="1" speed="2.78" allow="pedestrian" oneway="1" width="2.00"/>
    <type id="highway.bus_guideway" priority="1" numLanes="1" speed="27.78" allow="bus" oneway="1"/>
    <type id="highway.cycleway" priority="1" numLanes="1" speed="8.33" allow="bicycle" oneway="0" width="1.00"/>
    <type id="highway.footway" priority="1" numLanes="1" speed="2.78" allow="pedestrian" oneway="1" width="2.00"/>
    <type id="highway.ford" priority="1" numLanes="1" speed="2.78" allow="army" oneway="0"/>
    <type id="highway.living_street" priority="2" numLanes="1" speed="2.78" disallow="tram rail_urban rail rail_electric rail_fast ship" oneway="0"/>
    <type id="highway.motorway" priority="14" numLanes="2" speed="39.44" allow="private emergency authority army vip passenger hov taxi bus coach delivery truck trailer motorcycle evehicle custom1 custom2" oneway="1"/>
    <type id="highway.motorway_link" priority="9" numLanes="1" speed="22.22" allow="private emergency authority army vip passenger hov taxi bus coach delivery truck trailer motorcycle evehicle custom1 custom2" oneway="1"/>
    <type id="highway.path" priority="1" numLanes="1" speed="2.78" allow="pedestrian bicycle" oneway="0" width="2.00"/>
    <type id="highway.pedestrian" priority="1" numLanes="1" speed="2.78" allow="pedestrian" oneway="1" width="2.00"/>
    <type id="highway.primary" priority="12" numLanes="2" speed="27.78" disallow="tram rail_urban rail rail_electric rail_fast ship" oneway="0"/>
    <type id="highway.primary_link" priority="7" numLanes="1" speed="22.22" disallow="tram rail_urban rail rail_electric rail_fast ship" oneway="0"/>
    <type id="highway.raceway" priority="15" numLanes="2" speed="83.33" allow="vip" oneway="0"/>
    <type id="highway.residential" priority="3" numLanes="1" speed="13.89" disallow="tram rail_urban rail rail_electric rail_fast ship" oneway="0"/>
    <type id="highway.secondary" priority="11" numLanes="1" speed="27.78" disallow="tram rail_urban rail rail_electric rail_fast ship" oneway="0"/>
    <type id="highway.secondary_link" priority="6" numLanes="1" speed="22.22" disallow="tram rail_urban rail rail_electric rail_fast ship" oneway="0"/>
    <type id="highway.service" priority="1" numLanes="1" speed="5.56" allow="pedestrian delivery bicycle" oneway="0"/>
    <type id="highway.stairs" priority="1" numLanes="1" speed="1.39" allow="pedestrian" oneway="1" width="2.00"/>
    <type id="highway.step" priority="1" numLanes="1" speed="1.39" allow="pedestrian" oneway="1" width="2.00"/>
    <type id="highway.steps" priority="1" numLanes="1" speed="1.39" allow="pedestrian" oneway="1" width="2.00"/>
    <type id="highway.tertiary" priority="10" numLanes="1" speed="22.22" disallow="tram rail_urban rail rail_electric rail_fast ship" oneway="0"/>
    <type id="highway.tertiary_link" priority="5" numLanes="1" speed="22.22" disallow="tram rail_urban rail rail_electric rail_fast ship" oneway="0"/>
    <type id="highway.track" priority="1" numLanes="1" speed="5.56" allow="pedestrian motorcycle moped bicycle" oneway="0"/>
    <type id="highway.trunk" priority="13" numLanes="2" speed="27.78" disallow="pedestrian bicycle tram rail_urban rail rail_electric rail_fast ship" oneway="0"/>
    <type id="highway.trunk_link" priority="8" numLanes="1" speed="22.22" disallow="pedestrian bicycle tram rail_urban rail rail_electric rail_fast ship" oneway="0"/>
    <type id="highway.unclassified" priority="4" numLanes="1" speed="13.89" disallow="tram rail_urban rail rail_electric rail_fast ship" oneway="0"/>
    <type id="highway.unsurfaced" priority="1" numLanes="1" speed="8.33" disallow="tram rail_urban rail rail_electric rail_fast ship" oneway="0"/>
    <type id="railway.highspeed" priority="21" numLanes="1" speed="69.44" allow="rail_fast" oneway="1"/>
    <type id="railway.light_rail" priority="19" numLanes="1" speed="27.78" allow="rail_urban" oneway="1"/>
    <type id="railway.preserved" priority="16" numLanes="1" speed="27.78" allow="rail" oneway="1"/>
    <type id="railway.rail" priority="20" numLanes="1" speed="44.44" allow="rail" oneway="1"/>
    <type id="railway.subway" priority="18" numLanes="1" speed="27.78" allow="rail_urban" oneway="1"/>
    <type id="railway.tram" priority="17" numLanes="1" speed="13.89" allow="tram" oneway="1"/>

    <edge id=":1082436291_0" function="internal">
        <lane id=":1082436291_0_0" index="0" disallow="tram rail_urban rail rail_electric rail_fast ship" speed="13.89" length="5.00" shape="1023.60,1116.18 1019.86,1119.49"/>
    </edge>
    <edge id=":1082436317_0" function="internal">
        <lane id=":1082436317_0_0" index="0" allow="bus bicycle" speed="13.89" length="4.99" shape="980.76,1084.84 983.12,1089.23"/>
        <lane id=":1082436317_0_1" index="1" disallow="tram rail_urban rail rail_electric rail_fast ship" speed="13.89" length="4.99" shape="977.94,1086.35 980.30,1090.75"/>
        <lane id=":1082436317_0_2" index="2" disallow="tram rail_urban rail rail_electric rail_fast ship" speed="13.89" length="4.99" shape="975.12,1087.87 977.48,1092.27"/>
    </edge>
    <edge id=":1082436360_0" function="internal">
        <lane id=":1082436360_0_0" index="0" disallow="tram rail_urban rail rail_electric rail_fast ship" speed="27.78" length="5.01" shape="1013.88,1150.22 1016.28,1154.62"/>
        <lane id=":1082436360_0_1" index="1" disallow="tram rail_urban rail rail_electric rail_fast ship" speed="27.78" length="5.01" shape="1011.07,1151.75 1013.46,1156.15"/>
    </edge>
    <edge id=":1161310142_0" function="internal">
        <lane id=":1161310142_0_0" index="0" allow="bus bicycle" speed="27.78" length="0.59" shape="829.42,1238.91 829.40,1238.99 829.38,1239.05 829.37,1239.10 829.35,1239.19"/>
        <lane id=":1161310142_0_1" index="1" disallow="tram rail_urban rail rail_electric rail_fast ship" speed="27.78" length="0.59" shape="826.40,1237.87 826.31,1238.12 826.26,1238.29 826.23,1238.47 826.19,1238.73"/>
    </edge>
    <edge id=":1161310155_0" function="internal">
        <lane id=":1161310155_0_0" index="0" allow="bus bicycle" speed="13.89" length="5.00" shape="873.23,1014.76 870.88,1010.35"/>
        <lane id=":1161310155_0_1" index="1" disallow="tram rail_urban rail rail_electric rail_fast ship" speed="13.89" length="5.00" shape="876.06,1013.25 873.70,1008.84"/>
    </edge>
    <edge id=":1161310159_0" function="internal">
        <lane id=":1161310159_0_0" index="0" disallow="tram rail_urban rail rail_electric rail_fast ship" speed="27.78" length="5.24" shape="836.49,1316.23 837.21,1321.55"/>
        <lane id=":1161310159_0_1" index="1" disallow="tram rail_urban rail rail_electric rail_fast ship" speed="27.78" length="5.24" shape="833.33,1316.78 834.03,1321.85"/>
    </edge>
    <edge id=":1161310162_0" function="internal">
        <lane id=":1161310162_0_0" index="0" disallow="tram rail_urban rail rail_electric rail_fast ship" speed="27.78" length="4.32" shape="825.45,1322.46 825.39,1321.28 825.31,1320.48 825.16,1319.68 824.87,1318.54"/>
        <lane id=":1161310162_0_1" index="1" disallow="tram rail_urban rail rail_electric rail_fast ship" speed="27.78" length="4.32" shape="828.64,1322.30 828.57,1320.92 828.48,1319.97 828.30,1319.04 827.96,1317.71"/>
    </edge>
    <edge id=":1161310174_0" function="internal">
        <lane id=":1161310174_0_0" index="0" disallow="tram rail_urban rail rail_electric rail_fast ship" speed="13.89" length="9.51" shape="753.62,757.18 756.35,757.05 758.21,756.80 760.04,756.39 762.72,755.80"/>
        <lane id=":1161310174_0_1" index="1" disallow="tram rail_urban rail rail_electric rail_fast ship" speed="13.89" length="9.51" shape="753.69,760.38 756.59,760.25 758.56,759.98 760.51,759.56 763.35,758.94"/>
    </edge>
    <edge id=":1161310180_0" function="internal">
        <lane id=":1161310180_0_0" index="0" allow="bus bicycle" speed="13.89" length="4.88" shape="818.77,913.77 816.62,909.46"/>
        <lane id=":1161310180_0_1" index="1" disallow="tram rail_urban rail rail_electric rail_fast ship" speed="13.89" length="4.88" shape="821.66,912.41 819.46,907.99"/>
    </edge>
    <edge id=":1161310195_0" function="internal">
        <lane id=":1161310195_0_0" index="0" disallow="tram rail_urban rail rail_electric rail_fast ship" speed="13.89" length="4.83" shape="785.39,1208.27 788.76,1211.62"/>
        <lane id=":1161310195_0_1" index="1" disallow="tram rail_urban rail rail_electric rail_fast ship" speed="13.89" length="4.83" shape="783.09,1210.49 786.58,1213.96"/>
    </edge>
    <edge id=":1231723630_0" function="internal">
        <lane id=":1231723630_0_0" index="0" disallow="tram rail_urban rail rail_electric rail_fast ship" speed="3.65" length="4.67" shape="2057.18,1418.18 2056.98,1419.61 2056.43,1420.31 2055.54,1420.30 2054.29,1419.57"/>
    </edge>
    <edge id=":1231723631_0" function="internal">
        <lane id=":1231723631_0_0" index="0" disallow="tram rail_urban rail rail_electric rail_fast ship" speed="3.65" length="4.67" shape="2145.90,1300.63 2146.99,1301.58 2147.29,1302.42 2146.79,1303.16 2145.50,1303.81"/>
    </edge>
    <edge id=":1231724115_0" function="internal">
        <lane id=":1231724115_0_0" index="0" disallow="tram rail_urban rail rail_electric rail_fast ship" speed="2.78" length="14.53" shape="1984.65,1364.29 1971.86,1371.18"/>
    </edge>
    <edge id=":1231724115_1" function="internal">
        <lane id=":1231724115_1_0" index="0" disallow="tram rail_urban rail rail_electric rail_fast ship" speed="7.54" length="15.65" shape="1984.65,1364.29 1980.37,1365.75 1977.10,1365.27 1974.85,1362.85 1973.62,1358.50"/>
    </edge>
    <edge id=":1231724115_2" function="internal">
        <lane id=":1231724115_2_0" index="0" disallow="tram rail_urban rail rail_electric rail_fast ship" speed="2.78" length="4.67" shape="1984.65,1364.29 1983.22,1364.12 1982.50,1363.59 1982.50,1362.69 1983.21,1361.44"/>
    </edge>
    <edge id=":1231724115_3" function="internal">
        <lane id=":1231724115_3_0" index="0" disallow="tram rail_urban rail rail_electric rail_fast ship" speed="5.91" length="9.10" shape="1976.79,1358.07 1977.51,1360.60 1978.82,1362.00 1980.72,1362.28 1983.21,1361.44"/>
    </edge>
    <edge id=":1231724115_4" function="internal">
        <lane id=":1231724115_4_0" index="0" disallow="tram rail_urban rail rail_electric rail_fast ship" speed="8.34" length="14.90" shape="1976.79,1358.07 1976.97,1362.44 1976.20,1366.08 1974.50,1369.00 1971.86,1371.18"/>
    </edge>
    <edge id=":1231724115_5" function="internal">
        <lane id=":1231724115_5_0" index="0" disallow="tram rail_urban rail rail_electric rail_fast ship" speed="3.65" length="4.67" shape="1976.79,1358.07 1976.16,1359.36 1975.42,1359.87 1974.58,1359.58 1973.62,1358.50"/>
    </edge>
    <edge id=":1231724115_6" function="internal">
        <lane id=":1231724115_6_0" index="0" disallow="tram rail_urban rail rail_electric rail_fast ship" speed="8.34" length="11.12" shape="1970.25,1368.42 1972.10,1366.84 1973.28,1364.66 1973.79,1361.88 1973.62,1358.50"/>
    </edge>
    <edge id=":1231724115_7" function="internal">
        <lane id=":1231724115_7_0" index="0" disallow="tram rail_urban rail rail_electric rail_fast ship" speed="2.78" length="14.72" shape="1970.25,1368.42 1983.21,1361.44"/>
    </edge>
    <edge id=":1231724115_8" function="internal">
        <lane id=":1231724115_8_0" index="0" disallow="tram rail_urban rail rail_electric rail_fast ship" speed="2.78" length="4.67" shape="1970.25,1368.42 1971.69,1368.50 1972.44,1368.99 1972.49,1369.88 1971.86,1371.18"/>
    </edge>
    <edge id=":1231724121_0" function="internal">
        <lane id=":1231724121_0_0" index="0" disallow="tram rail_urban rail rail_electric rail_fast ship" speed="13.89" length="12.35" shape="2002.82,1306.29 2001.42,1303.26 2000.03,1300.78 1998.37,1298.49 1996.16,1295.99"/>
    </edge>
    <edge id=":1231724121_1" function="internal">
        <lane id=":1231724121_1_0" index="0" disallow="tram rail_urban rail rail_electric rail_fast ship" speed="7.00" length="7.70" shape="2002.82,1306.29 2000.64,1300.05 2000.64,1298.97"/>
    </edge>
    <edge id=":1231724121_2" function="internal">
        <lane id=":1231724121_2_0" index="0" disallow="tram rail_urban rail rail_electric rail_fast ship" speed="3.65" length="2.34" shape="2002.82,1306.29 2003.08,1304.87 2003.65,1304.19"/>
    </edge>
    <edge id=":1231724121_9" function="internal">
        <lane id=":1231724121_9_0" index="0" disallow="tram rail_urban rail rail_electric rail_fast ship" speed="7.00" length="9.63" shape="2000.64,1298.97 2000.61,1296.25 2002.74,1294.92 2007.00,1296.05"/>
    </edge>
    <edge id=":1231724121_10" function="internal">
        <lane id=":1231724121_10_0" index="0" disallow="tram rail_urban rail rail_electric rail_fast ship" speed="3.65" length="2.34" shape="2003.65,1304.19 2004.55,1304.24 2005.76,1305.02"/>
    </edge>
    <edge id=":1231724121_3" function="internal">
        <lane id=":1231724121_3_0" index="0" disallow="tram rail_urban rail rail_electric rail_fast ship" speed="5.25" length="8.97" shape="2008.46,1300.19 2006.06,1299.51 2004.81,1300.09 2004.71,1301.92 2005.76,1305.02"/>
    </edge>
    <edge id=":1231724121_4" function="internal">
        <lane id=":1231724121_4_0" index="0" disallow="tram rail_urban rail rail_electric rail_fast ship" speed="13.89" length="13.19" shape="2008.46,1300.19 2005.09,1299.19 2001.88,1298.69 1998.89,1297.89 1996.16,1295.99"/>
    </edge>
    <edge id=":1231724121_5" function="internal">
        <lane id=":1231724121_5_0" index="0" disallow="tram rail_urban rail rail_electric rail_fast ship" speed="4.08" length="6.40" shape="2008.46,1300.19 2006.54,1299.70 2005.66,1298.85 2005.82,1297.63 2007.00,1296.05"/>
    </edge>
    <edge id=":1231724121_6" function="internal">
        <lane id=":1231724121_6_0" index="0" disallow="tram rail_urban rail rail_electric rail_fast ship" speed="13.89" length="9.08" shape="1998.49,1293.79 2000.53,1295.25 2002.37,1295.46 2004.40,1295.40 2007.00,1296.05"/>
    </edge>
    <edge id=":1231724121_7" function="internal">
        <lane id=":1231724121_7_0" index="0" disallow="tram rail_urban rail rail_electric rail_fast ship" speed="13.89" length="13.45" shape="1998.49,1293.79 2000.79,1296.43 2002.66,1299.05 2004.26,1301.84 2005.76,1305.02"/>
    </edge>
    <edge id=":1231724121_8" function="internal">
        <lane id=":1231724121_8_0" index="0" disallow="tram rail_urban rail rail_electric rail_fast ship" speed="3.65" length="2.34" shape="1998.49,1293.79 1998.73,1295.21 1998.42,1296.05"/>
    </edge>
    <edge id=":1231724121_11" function="internal">
        <lane id=":1231724121_11_0" index="0" disallow="tram rail_urban rail rail_electric rail_fast ship" speed="3.65" length="2.34" shape="1998.42,1296.05 1997.56,1296.31 1996.16,1295.99"/>
    </edge>
    <edge id=":1231724122_0" function="internal">
        <lane id=":1231724122_0_0" index="0" disallow="tram rail_urban rail rail_electric rail_fast ship" speed="6.58" length="7.91" shape="1937.68,1289.41 1937.36,1287.15 1936.53,1285.44 1935.19,1284.27 1933.34,1283.65"/>
    </edge>
    <edge id=":1231724122_1" function="internal">
        <lane id=":1231724122_1_0" index="0" disallow="tram rail_urban rail rail_electric rail_fast ship" speed="8.03" length="12.98" shape="1937.68,1289.41 1938.07,1285.93 1939.46,1283.28 1941.83,1281.46 1945.19,1280.47"/>
    </edge>
    <edge id=":1231724122_2" function="internal">
        <lane id=":1231724122_2_0" index="0" disallow="tram rail_urban rail rail_electric rail_fast ship" speed="3.65" length="4.67" shape="1937.68,1289.41 1938.45,1288.19 1939.24,1287.77 1940.05,1288.15 1940.88,1289.32"/>
    </edge>
    <edge id=":1231724122_3" function="internal">
        <lane id=":1231724122_3_0" index="0" disallow="tram rail_urban rail rail_electric rail_fast ship" speed="6.53" length="8.26" shape="1945.66,1283.64 1943.52,1284.27 1942.01,1285.42 1941.13,1287.11 1940.88,1289.32"/>
    </edge>
    <edge id=":1231724122_4" function="internal">
        <lane id=":1231724122_4_0" index="0" disallow="tram rail_urban rail rail_electric rail_fast ship" speed="13.89" length="12.38" shape="1945.66,1283.64 1942.34,1284.06 1939.49,1284.23 1936.65,1284.10 1933.34,1283.65"/>
    </edge>
    <edge id=":1231724122_5" function="internal">
        <lane id=":1231724122_5_0" index="0" disallow="tram rail_urban rail rail_electric rail_fast ship" speed="3.65" length="2.34" shape="1945.66,1283.64 1944.36,1283.02 1943.84,1282.29"/>
    </edge>
    <edge id=":1231724122_9" function="internal">
        <lane id=":1231724122_9_0" index="0" disallow="tram rail_urban rail rail_electric rail_fast ship" speed="3.65" length="2.34" shape="1943.84,1282.29 1944.12,1281.44 1945.19,1280.47"/>
    </edge>
    <edge id=":1231724122_6" function="internal">
        <lane id=":1231724122_6_0" index="0" disallow="tram rail_urban rail rail_electric rail_fast ship" speed="13.89" length="11.04" shape="1934.23,1280.56 1937.33,1280.99 1939.70,1281.10 1942.09,1280.91 1945.19,1280.47"/>
    </edge>
    <edge id=":1231724122_7" function="internal">
        <lane id=":1231724122_7_0" index="0" disallow="tram rail_urban rail rail_electric rail_fast ship" speed="7.99" length="4.62" shape="1934.23,1280.56 1937.06,1281.51 1938.29,1282.57"/>
    </edge>
    <edge id=":1231724122_8" function="internal">
        <lane id=":1231724122_8_0" index="0" disallow="tram rail_urban rail rail_electric rail_fast ship" speed="3.66" length="2.10" shape="1934.23,1280.56 1935.17,1281.66 1935.29,1282.30"/>
    </edge>
    <edge id=":1231724122_10" function="internal">
        <lane id=":1231724122_10_0" index="0" disallow="tram rail_urban rail rail_electric rail_fast ship" speed="7.99" length="7.46" shape="1938.29,1282.57 1939.12,1283.28 1940.39,1285.89 1940.88,1289.32"/>
    </edge>
    <edge id=":1231724122_11" function="internal">
        <lane id=":1231724122_11_0" index="0" disallow="tram rail_urban rail rail_electric rail_fast ship" speed="3.66" length="2.60" shape="1935.29,1282.30 1935.33,1282.55 1934.72,1283.21 1933.34,1283.65"/>
    </edge>
    <edge id=":1231724124_0" function="internal">
        <lane id=":1231724124_0_0" index="0" disallow="tram rail_urban rail rail_electric rail_fast ship" speed="6.64" length="9.60" shape="1964.43,1287.26 1963.74,1284.57 1962.45,1282.76 1960.56,1281.84 1958.07,1281.80"/>
    </edge>
    <edge id=":1231724124_1" function="internal">
        <lane id=":1231724124_1_0" index="0" disallow="tram rail_urban rail rail_electric rail_fast ship" speed="7.67" length="15.07" shape="1964.43,1287.26 1964.51,1283.00 1965.98,1280.08 1968.85,1278.50 1973.11,1278.27"/>
    </edge>
    <edge id=":1231724124_2" function="internal">
        <lane id=":1231724124_2_0" index="0" disallow="tram rail_urban rail rail_electric rail_fast ship" speed="3.65" length="4.67" shape="1964.43,1287.26 1965.08,1285.97 1965.82,1285.48 1966.66,1285.77 1967.61,1286.87"/>
    </edge>
    <edge id=":1231724124_3" function="internal">
        <lane id=":1231724124_3_0" index="0" disallow="tram rail_urban rail rail_electric rail_fast ship" speed="6.09" length="9.06" shape="1972.83,1281.46 1970.26,1281.60 1968.54,1282.55 1967.66,1284.30 1967.61,1286.87"/>
    </edge>
    <edge id=":1231724124_4" function="internal">
        <lane id=":1231724124_4_0" index="0" disallow="tram rail_urban rail rail_electric rail_fast ship" speed="13.89" length="14.79" shape="1972.83,1281.46 1969.12,1281.22 1965.44,1281.19 1961.76,1281.38 1958.07,1281.80"/>
    </edge>
    <edge id=":1231724124_5" function="internal">
        <lane id=":1231724124_5_0" index="0" disallow="tram rail_urban rail rail_electric rail_fast ship" speed="3.65" length="2.34" shape="1972.83,1281.46 1971.70,1280.56 1971.37,1279.73"/>
    </edge>
    <edge id=":1231724124_9" function="internal">
        <lane id=":1231724124_9_0" index="0" disallow="tram rail_urban rail rail_electric rail_fast ship" speed="3.65" length="2.34" shape="1971.37,1279.73 1971.84,1278.96 1973.11,1278.27"/>
    </edge>
    <edge id=":1231724124_6" function="internal">
        <lane id=":1231724124_6_0" index="0" disallow="tram rail_urban rail rail_electric rail_fast ship" speed="13.89" length="15.54" shape="1957.60,1278.64 1961.41,1278.21 1965.34,1278.02 1969.28,1278.04 1973.11,1278.27"/>
    </edge>
    <edge id=":1231724124_7" function="internal">
        <lane id=":1231724124_7_0" index="0" disallow="tram rail_urban rail rail_electric rail_fast ship" speed="8.11" length="6.34" shape="1957.60,1278.64 1961.53,1278.66 1963.72,1279.68"/>
    </edge>
    <edge id=":1231724124_8" function="internal">
        <lane id=":1231724124_8_0" index="0" disallow="tram rail_urban rail rail_electric rail_fast ship" speed="3.65" length="2.34" shape="1957.60,1278.64 1958.91,1279.25 1959.42,1279.99"/>
    </edge>
    <edge id=":1231724124_10" function="internal">
        <lane id=":1231724124_10_0" index="0" disallow="tram rail_urban rail rail_electric rail_fast ship" speed="8.11" length="8.50" shape="1963.72,1279.68 1964.51,1280.04 1966.54,1282.78 1967.61,1286.87"/>
    </edge>
    <edge id=":1231724124_11" function="internal">
        <lane id=":1231724124_11_0" index="0" disallow="tram rail_urban rail rail_electric rail_fast ship" speed="3.65" length="2.34" shape="1959.42,1279.99 1959.14,1280.84 1958.07,1281.80"/>
    </edge>
    <edge id=":1231724131_0" function="internal">
        <lane id=":1231724131_0_0" index="0" disallow="tram rail_urban rail rail_electric rail_fast ship" speed="3.65" length="4.67" shape="2145.65,1336.78 2147.03,1337.19 2147.65,1337.84 2147.50,1338.72 2146.58,1339.84"/>
    </edge>
    <edge id=":1232216256_0" function="internal">
        <lane id=":1232216256_0_0" index="0" disallow="tram rail_urban rail rail_electric rail_fast ship" speed="13.89" length="6.07" shape="1929.88,1427.44 1928.09,1427.62 1926.85,1427.63 1925.62,1427.55 1923.82,1427.43"/>
    </edge>
    <edge id=":1232216256_1" function="internal">
        <lane id=":1232216256_1_0" index="0" disallow="tram rail_urban rail rail_electric rail_fast ship" speed="3.65" length="2.34" shape="1929.88,1427.44 1928.59,1426.80 1928.09,1426.05"/>
    </edge>
    <edge id=":1232216256_4" function="internal">
        <lane id=":1232216256_4_0" index="0" disallow="tram rail_urban rail rail_electric rail_fast ship" speed="3.65" length="2.34" shape="1928.09,1426.05 1928.39,1425.21 1929.49,1424.27"/>
    </edge>
    <edge id=":1232216256_2" function="internal">
        <lane id=":1232216256_2_0" index="0" disallow="tram rail_urban rail rail_electric rail_fast ship" speed="13.89" length="5.52" shape="1923.98,1424.24 1925.62,1424.35 1926.74,1424.43 1927.86,1424.42 1929.49,1424.27"/>
    </edge>
    <edge id=":1232216256_3" function="internal">
        <lane id=":1232216256_3_0" index="0" disallow="tram rail_urban rail rail_electric rail_fast ship" speed="3.65" length="2.34" shape="1923.98,1424.24 1925.14,1425.10 1925.50,1425.92"/>
    </edge>
    <edge id=":1232216256_5" function="internal">
        <lane id=":1232216256_5_0" index="0" disallow="tram rail_urban rail rail_electric rail_fast ship" speed="3.65" length="2.34" shape="1925.50,1425.92 1925.06,1426.69 1923.82,1427.43"/>
    </edge>
    <edge id=":1232216261_0" function="internal">
        <lane id=":1232216261_0_0" index="0" disallow="tram rail_urban rail rail_electric rail_fast ship" speed="13.89" length="14.32" shape="2052.69,1347.05 2047.59,1333.67"/>
    </edge>
    <edge id=":1232216261_1" function="internal">
        <lane id=":1232216261_1_0" index="0" disallow="tram rail_urban rail rail_electric rail_fast ship" speed="7.97" length="5.84" shape="2052.69,1347.05 2051.86,1343.23 2052.22,1341.33"/>
    </edge>
    <edge id=":1232216261_2" function="internal">
        <lane id=":1232216261_2_0" index="0" disallow="tram rail_urban rail rail_electric rail_fast ship" speed="3.65" length="2.34" shape="2052.69,1347.05 2053.03,1345.65 2053.64,1345.00"/>
    </edge>
    <edge id=":1232216261_9" function="internal">
        <lane id=":1232216261_9_0" index="0" disallow="tram rail_urban rail rail_electric rail_fast ship" speed="7.97" length="8.41" shape="2052.22,1341.33 2052.47,1340.07 2054.50,1337.59 2057.97,1335.77"/>
    </edge>
    <edge id=":1232216261_10" function="internal">
        <lane id=":1232216261_10_0" index="0" disallow="tram rail_urban rail rail_electric rail_fast ship" speed="3.65" length="2.34" shape="2053.64,1345.00 2054.53,1345.09 2055.69,1345.94"/>
    </edge>
    <edge id=":1232216261_3" function="internal">
        <lane id=":1232216261_3_0" index="0" disallow="tram rail_urban rail rail_electric rail_fast ship" speed="6.47" length="9.03" shape="2059.04,1338.79 2056.84,1339.94 2055.55,1341.51 2055.17,1343.51 2055.69,1345.94"/>
    </edge>
    <edge id=":1232216261_4" function="internal">
        <lane id=":1232216261_4_0" index="0" disallow="tram rail_urban rail rail_electric rail_fast ship" speed="8.10" length="14.20" shape="2059.04,1338.79 2055.21,1339.57 2052.03,1338.98 2049.49,1337.01 2047.59,1333.67"/>
    </edge>
    <edge id=":1232216261_5" function="internal">
        <lane id=":1232216261_5_0" index="0" disallow="tram rail_urban rail rail_electric rail_fast ship" speed="3.65" length="4.67" shape="2059.04,1338.79 2057.64,1338.44 2057.00,1337.82 2057.11,1336.93 2057.97,1335.77"/>
    </edge>
    <edge id=":1232216261_6" function="internal">
        <lane id=":1232216261_6_0" index="0" disallow="tram rail_urban rail rail_electric rail_fast ship" speed="6.63" length="9.16" shape="2050.57,1332.51 2051.79,1334.65 2053.43,1335.91 2055.49,1336.28 2057.97,1335.77"/>
    </edge>
    <edge id=":1232216261_7" function="internal">
        <lane id=":1232216261_7_0" index="0" disallow="tram rail_urban rail rail_electric rail_fast ship" speed="13.89" length="14.38" shape="2050.57,1332.51 2055.69,1345.94"/>
    </edge>
    <edge id=":1232216261_8" function="internal">
        <lane id=":1232216261_8_0" index="0" disallow="tram rail_urban rail rail_electric rail_fast ship" speed="3.65" length="2.34" shape="2050.57,1332.51 2050.26,1333.92 2049.66,1334.58"/>
    </edge>
    <edge id=":1232216261_11" function="internal">
        <lane id=":1232216261_11_0" index="0" disallow="tram rail_urban rail rail_electric rail_fast ship" speed="3.65" length="2.34" shape="2049.66,1334.58 2048.77,1334.50 2047.59,1333.67"/>
    </edge>
    <edge id=":1232216262_0" function="internal">
        <lane id=":1232216262_0_0" index="0" disallow="tram rail_urban rail rail_electric rail_fast ship" speed="7.27" length="21.01" shape="1881.06,1425.25 1873.88,1424.32 1871.18,1422.49 1872.96,1419.76 1879.23,1416.13"/>
    </edge>
    <edge id=":1232216262_1" function="internal">
        <lane id=":1232216262_1_0" index="0" disallow="tram rail_urban rail rail_electric rail_fast ship" speed="4.54" length="7.00" shape="1880.62,1419.01 1878.53,1420.22 1877.93,1421.13 1878.83,1421.74 1881.23,1422.05"/>
    </edge>
    <edge id=":1232216279_0" function="internal">
        <lane id=":1232216279_0_0" index="0" disallow="tram rail_urban rail rail_electric rail_fast ship" speed="10.99" length="11.04" shape="2042.39,1320.38 2041.22,1317.42 2040.06,1315.29 2038.39,1313.66 2035.66,1312.19"/>
    </edge>
    <edge id=":1232216279_1" function="internal">
        <lane id=":1232216279_1_0" index="0" disallow="tram rail_urban rail rail_electric rail_fast ship" speed="7.88" length="14.47" shape="2042.39,1320.38 2041.48,1316.48 2042.08,1313.30 2044.19,1310.86 2047.80,1309.14"/>
    </edge>
    <edge id=":1232216279_2" function="internal">
        <lane id=":1232216279_2_0" index="0" disallow="tram rail_urban rail rail_electric rail_fast ship" speed="3.65" length="4.67" shape="2042.39,1320.38 2042.70,1318.97 2043.30,1318.31 2044.19,1318.39 2045.37,1319.22"/>
    </edge>
    <edge id=":1232216279_3" function="internal">