<?xml version="1.0" encoding="UTF-8"?>

<!-- generated on Mon Feb  1 11:43:19 2021 by Eclipse SUMO polyconvert Version 1.8.0
<configuration xmlns:xsi="http://www.w3.org/2001/XMLSchema-instance" xsi:noNamespaceSchemaLocation="http://sumo.dlr.de/xsd/polyconvertConfiguration.xsd">

    <input>
        <net-file value="osm.net.xml"/>
        <osm-files value="osm_bbox.osm.xml"/>
        <osm.keep-full-type value="true"/>
        <type-file value="/usr/share/sumo/data/typemap/osmPolyconvert.typ.xml"/>
    </input>

    <output>
        <output-file value="osm.poly.xml"/>
    </output>

    <processing>
        <poi-layer-offset value="5"/>
    </processing>

    <report>
        <verbose value="true"/>
    </report>

</configuration>
-->

<additional xmlns:xsi="http://www.w3.org/2001/XMLSchema-instance" xsi:noNamespaceSchemaLocation="http://sumo.dlr.de/xsd/additional_file.xsd">
    <location netOffset="-724643.72,-4371269.43" convBoundary="-12.04,-0.00,3899.99,3619.85" origBoundary="-6.388616,39.461386,-6.342307,39.493263" projParameter="+proj=utm +zone=29 +ellps=WGS84 +datum=WGS84 +units=m +no_defs"/>

    <poly id="103560040" type="amenity.public_building" color="237,199,199" fill="1" layer="-1.00" shape="765.363866,1276.943097 790.474938,1263.208982 779.187686,1241.283372 753.835039,1255.032718 765.363866,1276.943097"/>
    <poly id="103560040#1" type="building.yes" color="255,230,230" fill="1" layer="-1.00" shape="765.363866,1276.943097 790.474938,1263.208982 779.187686,1241.283372 753.835039,1255.032718 765.363866,1276.943097"/>
    <poly id="107175404" type="waterway.stream" color="181,209,209" fill="0" layer="-4.00" shape="1682.633866,1054.505366 1682.459090,1060.488414 1685.519460,1066.554857 1695.045550,1072.354687 1699.053042,1077.537806 1699.262728,1086.276194 1695.356328,1109.170363 1690.610762,1113.631164 1683.073077,1118.465902 1675.038901,1124.674861 1674.885764,1145.834457 1677.891676,1169.386053 1683.440086,1185.190664 1697.115990,1207.209766 1709.608117,1222.295157 1730.745730,1241.777123 1740.507776,1255.405191 1747.446090,1270.783868 1752.623454,1283.366983 1757.296337,1297.301861 1760.651271,1308.898506 1762.728492,1316.780483 1760.100444,1327.746781 1753.445993,1350.094015 1751.300844,1360.152317 1757.245538,1393.910851 1762.355955,1408.780637 1766.054364,1424.531271 1765.994475,1458.103224 1780.361362,1487.975116 1794.299438,1516.901288 1807.960121,1555.018276 1810.488120,1563.380064 1819.834193,1575.607398 1830.158971,1585.574744 1846.099948,1593.395478 1856.875905,1603.831557 1863.370983,1618.741926 1867.136235,1632.194866 1878.336398,1644.020999 1902.465086,1671.867816 1901.126621,1701.736205 1893.033070,1725.885476 1887.581343,1738.602278 1888.992150,1753.363997 1888.454567,1771.746075 1888.131886,1782.779762 1878.668209,1790.779789 1874.230814,1800.315534 1874.392662,1842.181925 1878.573421,1857.024650 1874.850213,1873.935955 1876.819661,1885.492176 1883.426896,1896.261919 1891.838323,1908.928660 1897.949011,1921.072620 1905.337182,1936.931291 1922.943539,1950.778022 1948.993734,1960.283470 1967.431957,1961.289506 1983.975704,1964.073271 1990.125754,1969.274847 1999.754303,1977.411211 2026.543814,2009.013742 2046.656615,2016.046056 2063.986152,2023.452460 2118.719718,2062.772517 2148.984995,2086.200481 2167.194408,2095.010517 2204.175463,2109.891957 2230.983651,2124.942201 2240.070480,2129.807850 2269.419779,2152.742886 2280.699196,2161.816793 2301.195251,2171.616281 2312.501603,2179.768911 2331.190217,2204.236055 2366.790289,2218.622357 2404.931309,2240.893544 2448.322053,2257.352875 2465.228016,2279.468379 2501.182104,2313.174654 2528.821076,2347.114933 2551.506509,2376.754921 2573.781001,2404.549804 2594.387402,2441.950295 2603.137640,2474.403457 2610.624094,2502.686677 2615.918140,2526.761589 2619.438826,2548.484722 2623.315088,2557.797454 2635.139099,2564.121577 2645.140784,2569.470115 2653.833314,2572.491606 2650.766784,2582.522698 2640.212254,2596.011387 2635.828331,2603.704074 2617.941968,2599.490666 2606.380201,2600.073492 2602.411807,2609.156014 2610.410491,2619.978450 2623.046948,2630.003773 2630.492726,2659.663467 2644.052343,2701.001346 2664.465707,2713.554762 2678.802657,2728.696217 2695.620386,2737.922305 2711.241948,2740.680689 2720.724441,2747.869453 2736.794033,2766.739276 2743.407855,2777.510102 2757.004649,2786.186250 2767.786256,2796.623990 2773.975958,2806.004765 2777.158578,2839.216835 2797.951776,2870.179796 2814.900485,2890.464376 2828.073526,2913.848844 2841.562038,2926.199364 2872.126975,2923.420006 2899.414332,2937.553724 2924.742397,2940.142311 2950.509411,2958.842152 2971.142986,2979.679828 2995.412173,3002.468698 3031.608526,3043.550887 3043.387257,3066.894794 3040.582097,3083.832716 3039.229282,3098.513590 3041.128952,3112.367983 3069.714037,3129.762417 3085.267135,3134.819364 3102.932359,3162.013914 3150.475777,3194.231516 3194.293299,3227.261922 3227.956616,3260.449249 3244.984995,3277.959782 3254.705468,3308.609409 3274.588518,3339.091602 3291.052269,3360.274144 3315.978093,3376.184232 3353.889311,3413.285776 3394.227615,3416.195870 3424.447968,3440.550329 3434.168092,3439.914551 3438.223400,3427.613068 3450.722411,3410.960819 3479.467142,3414.107515 3513.415171,3399.009525 3522.906508,3398.544871 3529.488069,3404.804892 3552.063235,3408.158879 3556.970564,3410.181113 3564.429643,3413.245135 3578.619632,3413.996721 3604.231246,3406.330380 3614.726911,3405.962108 3644.159050,3417.617723 3660.160143,3425.844343 3666.334779,3428.092890 3669.204741,3429.144096 3681.402455,3439.947222 3699.187183,3445.193502 3724.204465,3457.385828 3755.975508,3493.041850 3767.227557,3501.461907 3785.116648,3525.920693 3792.967373,3535.251445 3804.809343,3546.722006 3816.534349,3550.778754 3835.275546,3557.731210 3844.101076,3568.446214 3870.491506,3602.921857 3883.507043,3609.038834 3899.990837,3619.846665"/>
    <poly id="141194057" type="building.yes" color="255,230,230" fill="1" layer="-1.00" shape="1658.396791,660.856999 1661.393212,651.134613 1665.933427,652.533722 1666.627308,650.298711 1692.956730,658.366829 1689.342993,670.059819 1684.060108,668.439027 1670.025769,712.312535 1676.833637,715.377688 1683.820973,720.847793 1691.081934,729.036674 1695.196467,739.111188 1696.746315,749.432971 1694.201045,760.512803 1697.930333,761.666054 1694.697405,772.114763 1688.706331,770.273301 1684.807294,782.891175 1675.487747,780.030391 1679.624231,766.652877 1652.092121,758.205250 1647.993663,771.461679 1636.916019,768.060771 1641.024359,754.760188 1634.102926,752.636076 1637.497597,741.658804 1645.084610,743.991221 1652.882266,718.766540 1647.240973,717.035317 1651.710975,702.556557 1657.514450,704.336958 1669.858835,664.369141 1658.396791,660.856999"/>
    <poly id="141194059" type="building.yes" color="255,230,230" fill="1" layer="-1.00" shape="1659.000578,749.274810 1666.437945,725.183921 1672.246936,727.364447 1678.465426,732.034410 1682.536166,738.596959 1684.281899,747.224669 1681.907503,756.287522 1659.000578,749.274810"/>
    <poly id="146366351" type="leisure.park" color="207,245,201" fill="1" layer="-2.00" shape="1494.181426,500.149064 1599.998184,578.228423 1614.466690,588.782942 1649.713570,599.933150 1650.911084,606.400658 1605.345392,743.097412 1598.664166,766.366084 1577.586286,776.338249 1564.529571,780.556489 1550.758528,777.388147 1540.646504,775.715356 1530.744072,782.792050 1519.255405,812.352977 1503.798916,835.365578 1486.589725,848.806020 1504.836934,783.868978 1471.105033,768.630772 1450.456834,763.884324 1481.416462,652.524051 1479.727748,631.310759 1470.259452,607.570745 1460.366651,582.440756 1455.706291,568.039902 1458.892581,553.868000 1474.260205,517.976539 1482.402000,508.093169 1486.786027,500.388751 1494.181426,500.149064"/>
    <poly id="155791173" type="leisure.pitch" color="207,245,201" fill="1" layer="-2.00" shape="1797.717559,849.049037 1838.119925,851.985230 1839.502289,831.794767 1799.086023,829.035923 1797.717559,849.049037"/>
    <poly id="155791173#1" type="sport.soccer" color="79,230,125" fill="1" layer="-2.00" shape="1797.717559,849.049037 1838.119925,851.985230 1839.502289,831.794767 1799.086023,829.035923 1797.717559,849.049037"/>
    <poly id="156330491" type="landuse.orchard" color="194,194,130" fill="0" layer="-3.00" shape="1861.489941,1481.658957 1853.988890,1473.173968 1821.153794,1460.370999 1813.964076,1469.804101 1798.435588,1451.985614 1802.184394,1446.862493 1781.851924,1422.837691 1786.403088,1418.837882 1782.926319,1405.226788 1794.510366,1378.013158 1803.301146,1351.806649 1807.465343,1313.621900 1797.512495,1275.302262 1787.720043,1269.494497 1781.354296,1269.586190 1733.493262,1288.307296 1721.803707,1299.097705"/>
    <poly id="156330492" type="landuse.orchard" color="194,194,130" fill="0" layer="-3.00" shape="1721.803707,1299.097705 1731.499829,1308.202170 1755.281606,1304.075485 1760.022137,1317.168001 1751.077937,1343.914444 1742.958185,1342.155125 1740.830802,1334.516104 1727.378304,1331.090044 1726.521067,1317.699959 1713.153146,1315.798435 1701.040413,1351.684551 1718.547080,1377.548526 1718.929455,1388.036199 1742.986494,1407.481337 1738.934159,1432.715390 1749.492467,1464.164599 1750.143542,1465.161285 1775.452540,1503.918580 1793.904383,1496.836611 1812.806561,1557.704088 1820.943379,1583.905494"/>
    <poly id="238577579" type="amenity.place_of_worship" color="237,199,199" fill="1" layer="-1.00" shape="1258.542768,1332.480696 1258.780515,1333.776355 1260.695544,1333.654442 1265.238466,1336.719878 1264.415786,1338.062382 1265.720568,1338.789232 1266.597319,1337.659389 1271.382600,1340.976310 1267.340561,1347.013219 1279.443049,1354.809654 1281.597092,1351.806192 1285.872933,1354.286147 1288.144968,1351.075043 1291.967712,1350.786579 1292.162059,1349.436862 1292.914721,1349.314387 1292.697286,1348.208184 1294.437749,1345.214882 1295.622686,1345.327208 1295.780865,1344.331947 1294.861972,1344.249600 1294.791296,1343.425420 1299.636525,1335.534407 1292.562726,1330.384281 1290.441467,1333.444246 1286.299005,1330.523790 1285.395657,1331.975037 1280.806300,1328.730480 1281.770516,1327.258788 1280.724145,1326.528361 1279.658961,1327.919341 1275.357891,1324.827620 1276.458135,1323.415443 1275.250897,1322.591448 1274.169478,1323.948626 1269.021058,1320.387811 1268.620317,1318.776327 1267.196809,1319.168095 1267.751296,1321.117354 1260.239811,1332.452414 1258.542768,1332.480696"/>
    <poly id="238577579#1" type="building.church" color="255,230,230" fill="1" layer="-1.00" shape="1258.542768,1332.480696 1258.780515,1333.776355 1260.695544,1333.654442 1265.238466,1336.719878 1264.415786,1338.062382 1265.720568,1338.789232 1266.597319,1337.659389 1271.382600,1340.976310 1267.340561,1347.013219 1279.443049,1354.809654 1281.597092,1351.806192 1285.872933,1354.286147 1288.144968,1351.075043 1291.967712,1350.786579 1292.162059,1349.436862 1292.914721,1349.314387 1292.697286,1348.208184 1294.437749,1345.214882 1295.622686,1345.327208 1295.780865,1344.331947 1294.861972,1344.249600 1294.791296,1343.425420 1299.636525,1335.534407 1292.562726,1330.384281 1290.441467,1333.444246 1286.299005,1330.523790 1285.395657,1331.975037 1280.806300,1328.730480 1281.770516,1327.258788 1280.724145,1326.528361 1279.658961,1327.919341 1275.357891,1324.827620 1276.458135,1323.415443 1275.250897,1322.591448 1274.169478,1323.948626 1269.021058,1320.387811 1268.620317,1318.776327 1267.196809,1319.168095 1267.751296,1321.117354 1260.239811,1332.452414 1258.542768,1332.480696"/>
    <poly id="246419849" type="building.school" color="255,230,230" fill="1" layer="-1.00" shape="1396.970715,1090.160398 1390.667173,1094.609245 1349.505595,1048.080859 1355.074817,1044.010508 1366.308468,1055.925627 1378.468545,1068.845446 1400.061753,1045.600624 1426.514476,1057.959872 1407.022459,1078.244085 1396.970715,1090.160398"/>
    <poly id="262721845" type="building.yes" color="255,230,230" fill="1" layer="-1.00" shape="386.653050,928.856771 396.326393,954.523188 455.469022,932.411078 445.795835,906.744581 386.653050,928.856771"/>
    <poly id="262722132" type="leisure.swimming_pool" color="207,245,201" fill="1" layer="-2.00" shape="375.313969,986.930674 372.858856,979.260398 379.309235,967.660437 384.591429,982.645180 375.313969,986.930674"/>
    <poly id="26975034" type="building.yes" color="255,230,230" fill="1" layer="-1.00" shape="302.899369,910.415792 387.487094,876.421416 392.844786,868.055950 389.853370,857.503817 389.708615,842.623846 371.715035,822.959425 355.613647,829.757531 359.283681,838.885104 285.627601,869.742057 302.899369,910.415792"/>
    <poly id="26975034#1" type="tourism.hotel" color="207,245,201" fill="1" layer="-2.00" shape="302.899369,910.415792 387.487094,876.421416 392.844786,868.055950 389.853370,857.503817 389.708615,842.623846 371.715035,822.959425 355.613647,829.757531 359.283681,838.885104 285.627601,869.742057 302.899369,910.415792"/>
    <poly id="299083025" type="historic.memorial" color="128,255,128" fill="1" layer="-1.00" shape="793.124388,760.807533 794.771089,757.778070 797.576660,755.759973 800.987128,755.148183 804.318290,756.078329 806.921442,758.353780 808.275759,761.526107 808.106808,764.965183 806.460103,767.994644 803.654534,770.012737 800.244071,770.624525 796.912915,769.694381 794.318369,767.419183 792.964048,764.246859 793.124388,760.807533"/>
    <poly id="299347238" type="leisure.park" color="207,245,201" fill="1" layer="-2.00" shape="1163.129487,971.578048 1170.931739,979.815529 1263.595950,898.127500 1258.208376,892.126718 1163.129487,971.578048"/>
    <poly id="299347239" type="leisure.park" color="207,245,201" fill="1" layer="-2.00" shape="1075.454866,1063.833394 1070.201958,1057.347840 1155.607533,981.790832 1160.226566,988.457945 1075.454866,1063.833394"/>
    <poly id="299348116" type="leisure.park" color="207,245,201" fill="1" layer="-2.00" shape="1271.263251,855.767571 1274.826165,853.471760 1280.333707,852.110318 1287.986208,851.900175 1294.465984,854.699901 1300.654602,860.101923 1304.007769,864.999096 1305.671229,875.279642 1303.276523,882.397788 1298.730725,888.575540 1291.164008,892.932090 1281.730880,893.967973 1273.734801,890.901849 1269.020641,887.498146 1265.660991,882.822993 1264.060457,877.765853 1263.366733,871.435317 1264.656144,864.718214 1267.426160,859.788503 1271.263251,855.767571"/>
    <poly id="30634562" type="leisure.park" color="207,245,201" fill="1" layer="-2.00" shape="668.138689,1241.652503 649.998679,1217.605849 665.894112,1203.958857 677.702749,1215.667453 687.025456,1229.659012 668.138689,1241.652503"/>
    <poly id="308022382" type="amenity.clinic" color="237,199,199" fill="1" layer="-1.00" shape="804.057058,1305.687610 785.852038,1271.762216 765.486280,1282.501487 783.849879,1316.009277 804.057058,1305.687610"/>
    <poly id="30803512" type="leisure.garden" color="207,245,201" fill="1" layer="-2.00" shape="625.609501,1218.363120 628.392897,1218.877329 628.695791,1221.785753 607.773230,1241.019224 605.715508,1240.126173 605.209786,1237.678459 625.609501,1218.363120"/>
    <poly id="30824095" type="landuse.village_green" color="242,242,204" fill="1" layer="-3.00" shape="1016.918009,1272.034528 1004.830701,1247.741097 988.798715,1217.866844 960.593838,1165.441022 960.513401,1163.472267 960.903674,1161.306136 962.194562,1159.555069 997.417537,1142.483170 998.900957,1142.104206 1000.482389,1142.794626 1001.411796,1143.699359 1009.159607,1157.056657 1032.475664,1200.541397 1049.168866,1230.768302 1049.950382,1230.246694 1050.414110,1231.471159 1050.349826,1234.268927 1049.543877,1238.289373 1048.666510,1240.919029 1038.814740,1260.185080 1016.918009,1272.034528"/>
    <poly id="30824096" type="leisure.park" color="207,245,201" fill="1" layer="-2.00" shape="947.283587,1126.358453 944.472886,1123.232563 938.343077,1111.966631 936.847236,1109.223427 936.683899,1108.918711 935.901180,1107.707186 910.156056,1067.773837 915.277026,1067.556303 907.300185,1052.592660 906.704141,1051.475451 904.874931,1048.055971 899.226487,1047.758223 895.366103,1040.757853 901.088427,1041.179955 894.449960,1029.043817 893.779714,1027.813352 886.789700,1015.033738 880.612473,1014.265117 879.342415,1011.750694 877.445769,1007.984859 877.257587,1007.646092 859.731717,976.106697 865.466893,976.384717 859.599543,965.559782 858.945523,964.363123 850.601858,948.977823 849.907079,947.702211 839.667217,928.828856 836.251911,922.508057 835.557450,921.221347 831.496711,913.704144 826.076261,913.557517 824.539903,910.724285 822.276281,906.547843 820.600769,903.466151 825.863371,903.119355 818.215001,888.987505 817.577528,887.813552 807.093927,868.433226 801.338030,867.976897 800.278683,862.657880 800.367557,857.827767 801.077437,854.737720 803.999039,845.179550 804.808170,842.525667 805.616656,839.893984 806.425466,837.251201 808.880937,829.212602 809.118632,828.441843 812.380571,817.249349 813.530323,813.838812 814.957061,811.858370 818.881808,810.439439 819.996151,811.205102 823.017294,816.870058 824.060194,818.611292 822.824170,819.364111 824.830276,822.922027 827.305577,826.926873 828.363071,826.391053 839.369323,846.453195 870.320056,902.535634 895.912246,949.230117 915.245780,986.110425 933.143364,1018.182941 950.210325,1048.909274 962.676512,1072.924758 972.480706,1090.774648 980.585774,1109.608272 985.483366,1118.538654 979.388696,1121.738506 978.820117,1122.044128 963.478711,1130.240703 957.278507,1130.560093 952.096356,1129.331558 947.283587,1126.358453"/>
    <poly id="30824102" type="amenity.fountain" color="237,199,199" fill="1" layer="-1.00" shape="977.244638,1143.028864 976.088808,1144.872739 974.420470,1146.279523 972.390729,1147.086969 970.216923,1147.223640 967.927772,1146.590385 965.995476,1145.234284 964.639514,1143.306154 964.008278,1141.032508 964.188645,1138.682509 965.163932,1136.533414 966.797658,1134.836769 968.920545,1133.787621 971.270296,1133.522757 973.409120,1133.996099 975.288631,1135.095142 976.721822,1136.736672 977.576214,1138.739075 977.754066,1140.910641 977.244638,1143.028864"/>
    <poly id="30920981" type="building.yes" color="255,230,230" fill="1" layer="-1.00" shape="374.716467,775.053088 260.859894,661.606965 260.800425,651.195551 266.660303,641.844713 328.219019,614.580119 333.806286,615.808858 398.816760,762.643671 374.716467,775.053088"/>
    <poly id="30920981#1" type="leisure.sports_centre" color="207,245,201" fill="1" layer="-2.00" shape="374.716467,775.053088 260.859894,661.606965 260.800425,651.195551 266.660303,641.844713 328.219019,614.580119 333.806286,615.808858 398.816760,762.643671 374.716467,775.053088"/>
    <poly id="30920981#2" type="sport.multi" color="79,230,125" fill="1" layer="-2.00" shape="374.716467,775.053088 260.859894,661.606965 260.800425,651.195551 266.660303,641.844713 328.219019,614.580119 333.806286,615.808858 398.816760,762.643671 374.716467,775.053088"/>
    <poly id="311505719" type="landuse.grass" color="194,194,130" fill="1" layer="-3.00" shape="1580.826646,988.884270 1578.055667,987.647951 1575.575551,985.886858 1573.487593,983.670608 1571.874908,981.101613 1570.795129,978.270434 1570.288354,975.278229 1570.385434,972.248106 1571.065921,969.290566 1572.317647,966.527459 1574.077474,964.056931 1576.299143,961.988728 1578.877793,960.375338 1581.724799,959.303052 1584.727343,958.801904 1587.764330,958.890580 1590.732194,959.577164 1593.511784,960.813738 1595.991905,962.574836 1598.071261,964.790842 1599.692544,967.360094 1600.772316,970.191277 1601.270476,973.183233 1601.181987,976.213607 1600.501489,979.171145 1599.249753,981.934248 1597.481319,984.404519 1595.268253,986.472967 1592.689607,988.086351 1589.842610,989.158633 1586.840077,989.659778 1583.794499,989.570852 1580.826646,988.884270"/>
    <poly id="31528597" type="amenity.school" color="237,199,199" fill="1" layer="-1.00" shape="679.485252,1090.724676 587.196373,994.831389 643.804288,937.307253 701.695059,978.996569 740.021127,1056.534634 679.485252,1090.724676"/>
    <poly id="31528888" type="amenity.school" color="237,199,199" fill="1" layer="-1.00" shape="431.882886,568.741538 460.175220,637.331998 475.177805,673.707443 491.201935,712.556726 416.505073,752.503305 356.376840,611.909262 358.006500,605.013081 431.882886,568.741538"/>
    <poly id="316437834" type="landuse.orchard" color="194,194,130" fill="1" layer="-3.00" shape="2133.558312,425.645103 2138.732920,433.617820 2154.082202,427.012316 2162.263181,433.184375 2177.154773,454.573289 2184.683480,488.322993 2179.508261,498.025890 2152.298869,530.903258 2139.284846,556.585934 2111.316281,586.874844 2083.844938,638.142543 2050.803994,681.414979 2000.760483,733.389086 1975.553340,754.093681 1954.557248,782.742774 1978.007842,792.060898 1951.237421,826.773692 1925.017207,815.585984 1913.425254,826.245703 1906.033562,829.606923 1903.920701,832.955844 1897.837255,837.810700 1890.506283,840.273818 1880.290455,835.675671 1874.895118,887.978238 1851.552832,909.426505 1819.520911,930.631956 1780.454595,961.253002 1757.383420,989.941893 1730.402022,1020.438579 1718.508389,1047.043338 1742.188192,1060.578085 1770.045367,1074.657157 1745.138063,1118.457219 1744.321891,1130.476344 1744.982359,1141.760934 1727.765332,1153.411931 1734.946553,1166.375757 1727.142677,1177.079732 1727.676180,1186.816355 1732.347326,1198.162584 1724.402748,1203.074268 1717.057119,1212.536238 1710.685542,1208.994932 1706.487682,1212.982894 1695.935857,1210.763738 1676.870235,1180.477073 1663.290485,1189.945846 1658.626498,1186.310040 1653.512462,1180.394703 1651.110108,1172.436613 1651.040914,1171.268069 1648.200818,1122.579979 1671.265174,1124.164676 1673.887672,1105.721334 1677.324732,1042.296204 1654.653533,1018.103554 1667.809539,1003.989607 1694.648793,995.152571 1736.674403,979.049157 1760.789103,931.148611 1784.639988,917.625101 1838.826205,906.477024 1857.329823,868.511484 1867.199418,831.049034 1900.277733,822.372823 1904.264354,816.490111 1902.611822,800.265977 1899.054876,790.274291 1896.635339,777.016262 1877.087138,738.182745 1895.572330,704.693960 1907.091774,672.368049 1932.038466,677.063645 1938.354061,676.937245 1942.051191,673.890181 1946.003570,654.752531 1967.177007,658.915730 1976.852293,660.509640 1982.463045,658.573988 1987.430792,654.775311 1993.466054,649.219187 1998.461084,642.132823 2006.722944,638.763799 2018.200013,636.166528 2022.668126,632.375477 2021.297090,615.070785 2009.958307,609.995246 1996.004775,606.287519 1969.107908,602.901202 1963.917705,599.583135 1969.041513,568.070141 1970.770996,558.399673 1976.432628,556.198865 1984.542451,551.258889 1994.706973,543.490476 2003.319735,533.132550 2008.798763,520.983179 2012.072453,502.681153 2011.560597,486.912529 2010.319298,426.305765 2009.492921,386.841922 2008.180081,326.321958 2006.857774,270.245631 2011.127840,262.926973 2016.832530,253.372775 2069.495042,260.334761 2074.817745,265.900933 2106.927769,356.040763 2114.603231,385.672931 2120.353042,408.127395 2125.981374,419.135239 2133.558312,425.645103"/>
    <poly id="32934576" type="amenity.parking" color="184,184,179" fill="1" layer="-1.00" shape="1267.898900,1316.055630 1274.970923,1313.295566 1288.795383,1307.810575 1290.781647,1307.313016 1293.105668,1326.233974 1292.562726,1330.384281 1290.441467,1333.444246 1286.299005,1330.523790 1285.363835,1331.885232 1280.806300,1328.730480 1281.770516,1327.258788 1280.724145,1326.528361 1279.658961,1327.919341 1275.357891,1324.827620 1276.458135,1323.415443 1275.250897,1322.591448 1274.169478,1323.948626 1269.021058,1320.387811 1268.620317,1318.776327 1268.266798,1317.021794 1267.898900,1316.055630"/>
    <poly id="34065004" type="building.yes" color="255,230,230" fill="1" layer="-1.00" shape="1431.001691,833.641163 1482.695408,848.292417 1502.491226,786.055789 1448.521418,771.782407 1431.001691,833.641163"/>
    <poly id="34065004#1" type="leisure.sports_centre" color="207,245,201" fill="1" layer="-2.00" shape="1431.001691,833.641163 1482.695408,848.292417 1502.491226,786.055789 1448.521418,771.782407 1431.001691,833.641163"/>
    <poly id="34065004#2" type="sport.multi" color="79,230,125" fill="1" layer="-2.00" shape="1431.001691,833.641163 1482.695408,848.292417 1502.491226,786.055789 1448.521418,771.782407 1431.001691,833.641163"/>
    <poly id="34065027" type="amenity.marketplace" color="237,199,199" fill="1" layer="-1.00" shape="1083.192682,844.042670 1090.452387,815.935590 1113.871051,821.939423 1106.611264,850.046485 1083.192682,844.042670"/>
    <poly id="34065027#1" type="building.retail" color="255,230,230" fill="1" layer="-1.00" shape="1083.192682,844.042670 1090.452387,815.935590 1113.871051,821.939423 1106.611264,850.046485 1083.192682,844.042670"/>
    <poly id="34067374" type="amenity.parking" color="184,184,179" fill="1" layer="-1.00" shape="1606.726638,863.000659 1593.504241,826.596819 1601.501944,823.708506 1623.052947,845.890695 1606.726638,863.000659"/>
    <poly id="38069027" type="amenity.parking" color="184,184,179" fill="1" layer="-1.00" shape="1928.553549,1268.245942 1899.660525,1238.682243 1932.365307,1218.874477 1948.749952,1236.573826 1928.553549,1268.245942"/>
    <poly id="38069294" type="amenity.parking" color="184,184,179" fill="1" layer="-1.00" shape="1797.259614,576.835632 1763.557783,678.438265 1792.688583,686.699687 1796.488726,677.178584 1799.304546,670.106191 1808.448524,671.906558 1836.219901,655.087030 1842.386839,656.511571 1846.039209,657.351570 1858.330406,616.882486 1865.544769,619.004245 1855.291556,681.663526 1840.457588,743.433459 1860.600190,748.977190 1886.807649,717.313934 1907.091383,652.648211 1867.229031,640.039810 1871.083373,613.055781 1864.833055,598.574819 1797.259614,576.835632"/>
    <poly id="382363931" type="building.yes" color="255,230,230" fill="1" layer="-1.00" shape="1556.252301,1287.029775 1577.030467,1276.660052 1566.426903,1253.508810 1566.461527,1251.143447 1554.809506,1255.347115 1554.556925,1255.150875 1535.491737,1262.882113 1538.307555,1269.952345 1546.706042,1266.886843 1556.252301,1287.029775"/>
    <poly id="382363931#1" type="tourism.museum" color="207,245,201" fill="1" layer="-2.00" shape="1556.252301,1287.029775 1577.030467,1276.660052 1566.426903,1253.508810 1566.461527,1251.143447 1554.809506,1255.347115 1554.556925,1255.150875 1535.491737,1262.882113 1538.307555,1269.952345 1546.706042,1266.886843 1556.252301,1287.029775"/>
    <poly id="382364165" type="building.yes" color="255,230,230" fill="1" layer="-1.00" shape="1557.382943,1401.059824 1554.340045,1395.871605 1540.992194,1383.849984 1532.541774,1391.057900 1537.974311,1399.037763 1540.102282,1401.943986 1541.535338,1400.930401 1545.244976,1398.027972 1547.726311,1400.922294 1550.528070,1404.048168 1557.382943,1401.059824"/>
    <poly id="382364165#1" type="historic.monument" color="128,255,128" fill="1" layer="-1.00" shape="1557.382943,1401.059824 1554.340045,1395.871605 1540.992194,1383.849984 1532.541774,1391.057900 1537.974311,1399.037763 1540.102282,1401.943986 1541.535338,1400.930401 1545.244976,1398.027972 1547.726311,1400.922294 1550.528070,1404.048168 1557.382943,1401.059824"/>
    <poly id="382364166" type="building.yes" color="255,230,230" fill="1" layer="-1.00" shape="1541.535338,1400.930401 1542.311274,1402.075140 1532.926283,1406.789405 1530.009176,1408.204053 1527.295823,1400.870178 1531.010052,1398.989972 1532.366684,1401.773685 1537.974311,1399.037763 1540.102282,1401.943986 1541.535338,1400.930401"/>
    <poly id="382364288" type="building.yes" color="255,230,230" fill="1" layer="-1.00" shape="1583.226005,1285.639881 1590.932547,1301.551880 1574.879493,1310.515281 1570.102840,1302.187925 1577.644723,1298.675275 1573.095159,1290.532304 1583.226005,1285.639881"/>
    <poly id="382364289" type="building.yes" color="255,230,230" fill="1" layer="-1.00" shape="1570.102840,1302.187925 1558.077186,1308.869255 1550.784603,1311.511532 1555.025816,1324.022723 1544.167353,1328.771728 1546.144790,1333.295577 1561.637831,1325.815585 1558.601771,1318.327850 1574.879493,1310.515281 1570.102840,1302.187925"/>
    <poly id="38248422" type="leisure.pitch" color="207,245,201" fill="1" layer="-2.00" shape="1837.386873,862.629171 1836.062935,881.999222 1795.646608,879.251485 1796.983589,859.726280 1837.386873,862.629171"/>
    <poly id="38248422#1" type="sport.soccer" color="79,230,125" fill="1" layer="-2.00" shape="1837.386873,862.629171 1836.062935,881.999222 1795.646608,879.251485 1796.983589,859.726280 1837.386873,862.629171"/>
    <poly id="38248423" type="amenity.parking" color="184,184,179" fill="1" layer="-1.00" shape="1832.544980,884.518296 1783.008972,880.326432 1764.666359,914.563950 1771.385072,918.315402 1774.842862,913.139313 1780.419729,915.890857 1784.382491,909.051956 1797.716998,909.763831 1799.374435,905.201722 1826.727195,906.801068 1833.354181,901.906501 1837.291774,891.511765 1832.544980,884.518296"/>
    <poly id="38329385" type="amenity.library" color="237,199,199" fill="1" layer="-1.00" shape="1007.459005,1307.676614 998.160469,1290.807917 918.288779,1334.676032 927.038573,1351.173138 1007.459005,1307.676614"/>
    <poly id="38329385#1" type="building.yes" color="255,230,230" fill="1" layer="-1.00" shape="1007.459005,1307.676614 998.160469,1290.807917 918.288779,1334.676032 927.038573,1351.173138 1007.459005,1307.676614"/>
    <poly id="38329388" type="amenity.hospital" color="237,199,199" fill="1" layer="-1.00" shape="993.348222,1283.090957 928.521810,1319.453766 915.626094,1301.036184 909.546608,1298.692796 878.379385,1245.092290 949.979528,1206.759892 993.348222,1283.090957"/>
    <poly id="38329388#1" type="building.yes" color="255,230,230" fill="1" layer="-1.00" shape="993.348222,1283.090957 928.521810,1319.453766 915.626094,1301.036184 909.546608,1298.692796 878.379385,1245.092290 949.979528,1206.759892 993.348222,1283.090957"/>