<?xml version="1.0" encoding="UTF-8"?>
<!-- generated on 2021-02-01 11:43:19.075231 by $Id: ptlines2flows.py v1_3_1+0313-ccb31df3eb jakob.erdmann@dlr.de 2019-09-02 13:26:32 +0200 $ UNKNOWN
  options: 
-->
<routes xmlns:xsi="http://www.w3.org/2001/XMLSchema-instance" xsi:noNamespaceSchemaLocation="http://sumo.dlr.de/xsd/routes_file.xsd">
    <vType id="pt_bus" vClass="bus"/>
    <vType id="pt_tram" vClass="tram"/>
    <vType id="pt_train" vClass="rail"/>
    <vType id="pt_subway" vClass="rail_urban"/>
    <vType id="pt_light_rail" vClass="rail_urban"/>
    <vType id="pt_monorail" vClass="rail"/>
    <vType id="pt_trolleybus" vClass="bus"/>
    <vType id="pt_aerialway" vClass="bus"/>
    <vType id="pt_ferry" vClass="ship"/>
    <trip id="0_bus_LC:0" type="pt_bus" depart="15" departLane="best" from="22358125" to="419864787#1">
        <stop busStop="4313286126" duration="30"/>
        <stop busStop="1658284990" duration="30"/>
    </trip>
    <trip id="1_bus_L1:0" type="pt_bus" depart="52" departLane="best" from="31548939#0" to="33176188#1">
        <stop busStop="1658284989" duration="30"/>
    </trip>
    <trip id="2_bus_L2:0" type="pt_bus" depart="133" departLane="best" from="31548939#0" to="33176188#1">
        <stop busStop="1658284989" duration="30"/>
        <stop busStop="7973000957" duration="30"/>
    </trip>
    <trip id="3_bus_L4:0" type="pt_bus" depart="165" departLane="best" from="55693616#0" to="463648715#1">
        <stop busStop="6291931074" duration="30"/>
        <stop busStop="1658284989" duration="30"/>
    </trip>
    <trip id="4_bus_L5:0" type="pt_bus" depart="253" departLane="best" from="140955932#0" to="463648718#0">
        <stop busStop="1658284989" duration="30"/>
    </trip>
    <trip id="5_bus_L6:0" type="pt_bus" depart="383" departLane="best" from="-107173639#2" to="33176188#1">
        <stop busStop="-4313286134" duration="30"/>
    </trip>
    <trip id="6_bus_L7:0" type="pt_bus" depart="406" departLane="best" from="55693616#0" to="463648715#1">
        <stop busStop="6291931074" duration="30"/>
        <stop busStop="1658284989" duration="30"/>
        <stop busStop="4313286129" duration="30"/>
        <stop busStop="-7973000939" duration="30"/>
    </trip>
    <trip id="7_bus_L8:0" type="pt_bus" depart="441" departLane="best" from="31548939#0" to="24045454#2">
        <stop busStop="1658284989" duration="30"/>
        <stop busStop="4313286129" duration="30"/>
        <stop busStop="-7973000939" duration="30"/>
    </trip>
    <trip id="8_bus_L40:0" type="pt_bus" depart="535" departLane="best" from="713397869#0" to="25215918">
        <stop busStop="1658284989" duration="30"/>
    </trip>
</routes>
