<?xml version="1.0" encoding="UTF-8"?>

<!-- generated on lun 01 feb 2021 13:38:21 CET by Eclipse SUMO netedit Version 1.8.0
<configuration xmlns:xsi="http://www.w3.org/2001/XMLSchema-instance" xsi:noNamespaceSchemaLocation="http://sumo.dlr.de/xsd/netconvertConfiguration.xsd">

    <input>
        <sumo-net-file value="/home/eclipse-sumo/Desktop/SUMO-Projects/Circles_Exercise/circles.net.xml"/>
    </input>

    <output>
        <output-file value="/home/eclipse-sumo/Desktop/SUMO-Projects/Circles_Exercise/circles.net.xml"/>
    </output>

    <processing>
        <geometry.min-radius.fix.railways value="false"/>
        <geometry.max-grade.fix value="false"/>
        <offset.disable-normalization value="true"/>
        <lefthand value="false"/>
    </processing>

    <junctions>
        <no-turnarounds value="true"/>
        <junctions.corner-detail value="5"/>
        <junctions.limit-turn-speed value="5.5"/>
        <rectangular-lane-cut value="false"/>
    </junctions>

    <pedestrian>
        <walkingareas value="false"/>
    </pedestrian>

    <netedit>
        <route-files value="/home/eclipse-sumo/Desktop/SUMO-Projects/Circles_Exercise/circles.rou.xml"/>
    </netedit>

    <report>
        <aggregate-warnings value="5"/>
    </report>

</configuration>
-->

<routes xmlns:xsi="http://www.w3.org/2001/XMLSchema-instance" xsi:noNamespaceSchemaLocation="http://sumo.dlr.de/xsd/routes_file.xsd">
    <vType id="vType_0" length="2.00" maxSpeed="60.56" vClass="motorcycle" accel="4.60"/>
    <trip id="vehicle_0" depart="0.00" color="red" from="edge1" to="edge7"/>
    <flow id="flow_0" type="vType_0" begin="0.00" end="0.00" from="edge0" to="edge1" number="6"/>
</routes>
