<?xml version="1.0" encoding="UTF-8"?>

<!-- generated on lun 01 feb 2021 12:44:22 CET by Eclipse SUMO netedit Version 1.8.0
<configuration xmlns:xsi="http://www.w3.org/2001/XMLSchema-instance" xsi:noNamespaceSchemaLocation="http://sumo.dlr.de/xsd/netconvertConfiguration.xsd">

    <output>
        <output-file value="/home/eclipse-sumo/Desktop/SUMO-Projects/Circles/circles.net.xml"/>
    </output>

    <processing>
        <offset.disable-normalization value="true"/>
    </processing>

    <junctions>
        <no-turnarounds value="true"/>
    </junctions>

    <report>
        <aggregate-warnings value="5"/>
    </report>

</configuration>
-->

<net version="1.6" junctionCornerDetail="5" limitTurnSpeed="5.50" xmlns:xsi="http://www.w3.org/2001/XMLSchema-instance" xsi:noNamespaceSchemaLocation="http://sumo.dlr.de/xsd/net_file.xsd">

    <location netOffset="0.00,0.00" convBoundary="10.00,0.00,80.00,70.00" origBoundary="10000000000.00,10000000000.00,-10000000000.00,-10000000000.00" projParameter="!"/>

    <edge id=":0_0" function="internal">
        <lane id=":0_0_0" index="0" speed="4.20" length="1.26" shape="28.87,-1.13 29.12,-1.34 29.39,-1.48 29.68,-1.57 30.00,-1.60"/>
    </edge>
    <edge id=":1_0" function="internal">
        <lane id=":1_0_0" index="0" speed="4.22" length="1.28" shape="60.00,-1.60 60.37,-1.59 60.63,-1.53 60.86,-1.39 61.13,-1.13"/>
    </edge>
    <edge id=":2_0" function="internal">
        <lane id=":2_0_0" index="0" speed="4.20" length="1.26" shape="81.13,18.87 81.34,19.12 81.48,19.39 81.57,19.68 81.60,20.00"/>
    </edge>
    <edge id=":3_0" function="internal">
        <lane id=":3_0_0" index="0" speed="4.15" length="1.22" shape="81.60,50.00 81.13,51.13"/>
    </edge>
    <edge id=":4_0" function="internal">
        <lane id=":4_0_0" index="0" speed="4.20" length="1.26" shape="61.13,71.13 60.88,71.34 60.61,71.48 60.32,71.57 60.00,71.60"/>
    </edge>
    <edge id=":5_0" function="internal">
        <lane id=":5_0_0" index="0" speed="4.20" length="1.26" shape="30.00,71.60 29.68,71.57 29.39,71.48 29.12,71.34 28.87,71.13"/>
    </edge>
    <edge id=":6_0" function="internal">
        <lane id=":6_0_0" index="0" speed="4.20" length="1.26" shape="8.87,51.13 8.66,50.88 8.52,50.61 8.43,50.32 8.40,50.00"/>
    </edge>
    <edge id=":7_0" function="internal">
        <lane id=":7_0_0" index="0" speed="4.20" length="1.26" shape="8.40,20.00 8.43,19.68 8.52,19.39 8.66,19.12 8.87,18.87"/>
    </edge>

    <edge id="edge0" from="0" to="1" priority="-1">
        <lane id="edge0_0" index="0" speed="13.89" length="30.00" shape="30.00,-1.60 60.00,-1.60"/>
    </edge>
    <edge id="edge1" from="1" to="2" priority="-1">
        <lane id="edge1_0" index="0" speed="13.89" length="28.28" shape="61.13,-1.13 81.13,18.87"/>
    </edge>
    <edge id="edge2" from="2" to="3" priority="-1">
        <lane id="edge2_0" index="0" speed="13.89" length="30.00" shape="81.60,20.00 81.60,50.00"/>
    </edge>
    <edge id="edge3" from="3" to="4" priority="-1">
        <lane id="edge3_0" index="0" speed="13.89" length="28.28" shape="81.13,51.13 61.13,71.13"/>
    </edge>
    <edge id="edge4" from="4" to="5" priority="-1">
        <lane id="edge4_0" index="0" speed="13.89" length="30.00" shape="60.00,71.60 30.00,71.60"/>
    </edge>
    <edge id="edge5" from="5" to="6" priority="-1">
        <lane id="edge5_0" index="0" speed="13.89" length="28.28" shape="28.87,71.13 8.87,51.13"/>
    </edge>
    <edge id="edge6" from="6" to="7" priority="-1">
        <lane id="edge6_0" index="0" speed="13.89" length="30.00" shape="8.40,50.00 8.40,20.00"/>
    </edge>
    <edge id="edge7" from="7" to="0" priority="-1">
        <lane id="edge7_0" index="0" speed="13.89" length="28.28" shape="8.87,18.87 28.87,-1.13"/>
    </edge>

    <junction id="0" type="priority" x="30.00" y="0.00" incLanes="edge7_0" intLanes=":0_0_0" shape="30.00,0.00 30.00,-3.20 29.16,-3.10 28.77,-2.97 28.41,-2.78 28.06,-2.55 27.74,-2.26">
        <request index="0" response="0" foes="0" cont="0"/>
    </junction>
    <junction id="1" type="priority" x="60.00" y="0.00" incLanes="edge0_0" intLanes=":1_0_0" shape="60.00,0.00 62.26,-2.26 61.59,-2.78 61.23,-2.97 60.84,-3.10 60.43,-3.17 60.00,-3.20">
        <request index="0" response="0" foes="0" cont="0"/>
    </junction>
    <junction id="2" type="priority" x="80.00" y="20.00" incLanes="edge1_0" intLanes=":2_0_0" shape="80.00,20.00 83.20,20.00 83.10,19.16 82.97,18.77 82.78,18.41 82.55,18.06 82.26,17.74">
        <request index="0" response="0" foes="0" cont="0"/>
    </junction>
    <junction id="3" type="priority" x="80.00" y="50.00" incLanes="edge2_0" intLanes=":3_0_0" shape="83.20,50.00 80.00,50.00 82.26,52.26 82.78,51.59 82.97,51.23 83.10,50.84 83.17,50.43">
        <request index="0" response="0" foes="0" cont="0"/>
    </junction>
    <junction id="4" type="priority" x="60.00" y="70.00" incLanes="edge3_0" intLanes=":4_0_0" shape="62.26,72.26 60.00,70.00 60.00,73.20 60.84,73.10 61.23,72.97 61.59,72.78 61.94,72.55">
        <request index="0" response="0" foes="0" cont="0"/>
    </junction>
    <junction id="5" type="priority" x="30.00" y="70.00" incLanes="edge4_0" intLanes=":5_0_0" shape="30.00,73.20 30.00,70.00 27.74,72.26 28.41,72.78 28.77,72.97 29.16,73.10 29.57,73.17">
        <request index="0" response="0" foes="0" cont="0"/>
    </junction>
    <junction id="6" type="priority" x="10.00" y="50.00" incLanes="edge5_0" intLanes=":6_0_0" shape="7.74,52.26 10.00,50.00 6.80,50.00 6.85,50.94 6.94,51.27 7.11,51.56 7.37,51.88">
        <request index="0" response="0" foes="0" cont="0"/>
    </junction>
    <junction id="7" type="priority" x="10.00" y="20.00" incLanes="edge6_0" intLanes=":7_0_0" shape="6.80,20.00 10.00,20.00 7.74,17.74 7.22,18.41 7.03,18.77 6.90,19.16 6.83,19.57">
        <request index="0" response="0" foes="0" cont="0"/>
    </junction>

    <connection from="edge0" to="edge1" fromLane="0" toLane="0" via=":1_0_0" dir="l" state="M"/>
    <connection from="edge1" to="edge2" fromLane="0" toLane="0" via=":2_0_0" dir="l" state="M"/>
    <connection from="edge2" to="edge3" fromLane="0" toLane="0" via=":3_0_0" dir="l" state="M"/>
    <connection from="edge3" to="edge4" fromLane="0" toLane="0" via=":4_0_0" dir="l" state="M"/>
    <connection from="edge4" to="edge5" fromLane="0" toLane="0" via=":5_0_0" dir="l" state="M"/>
    <connection from="edge5" to="edge6" fromLane="0" toLane="0" via=":6_0_0" dir="l" state="M"/>
    <connection from="edge6" to="edge7" fromLane="0" toLane="0" via=":7_0_0" dir="l" state="M"/>
    <connection from="edge7" to="edge0" fromLane="0" toLane="0" via=":0_0_0" dir="l" state="M"/>

    <connection from=":0_0" to="edge0" fromLane="0" toLane="0" dir="l" state="M"/>
    <connection from=":1_0" to="edge1" fromLane="0" toLane="0" dir="l" state="M"/>
    <connection from=":2_0" to="edge2" fromLane="0" toLane="0" dir="l" state="M"/>
    <connection from=":3_0" to="edge3" fromLane="0" toLane="0" dir="l" state="M"/>
    <connection from=":4_0" to="edge4" fromLane="0" toLane="0" dir="l" state="M"/>
    <connection from=":5_0" to="edge5" fromLane="0" toLane="0" dir="l" state="M"/>
    <connection from=":6_0" to="edge6" fromLane="0" toLane="0" dir="l" state="M"/>
    <connection from=":7_0" to="edge7" fromLane="0" toLane="0" dir="l" state="M"/>

</net>
